

        *** GPGPU-Sim Simulator Version 3.2.2  [build gpgpu-sim_git-commit-c46ada6511a85df09b4a05ed1260f0ff10279dc1_modified_597] ***


GPGPU-Sim PTX: simulation mode 0 (can change with PTX_SIM_MODE_FUNC environment variable:
               1=functional simulation only, 0=detailed performance simulator)
GPGPU-Sim: Configuration options:

-network_mode                           1 # Interconnection network mode
-inter_config_file   config_fermi_islip.icnt # Interconnection network config file
-gpgpu_ptx_use_cuobjdump                    1 # Use cuobjdump to extract ptx and sass from binaries
-gpgpu_experimental_lib_support                    0 # Try to extract code from cuda libraries [Broken because of unknown cudaGetExportTable]
-gpgpu_ptx_convert_to_ptxplus                    0 # Convert SASS (native ISA) to ptxplus and run ptxplus
-gpgpu_ptx_force_max_capability                   20 # Force maximum compute capability
-gpgpu_ptx_inst_debug_to_file                    0 # Dump executed instructions' debug information to file
-gpgpu_ptx_inst_debug_file       inst_debug.txt # Executed instructions' debug output file
-gpgpu_ptx_inst_debug_thread_uid                    1 # Thread UID for executed instructions' debug output
-gpgpu_simd_model                       1 # 1 = post-dominator
-gpgpu_shader_core_pipeline              2048:32 # shader core pipeline config, i.e., {<nthread>:<warpsize>}
-gpgpu_tex_cache:l1  16:128:24,L:R:m:N:L,F:128:4,128:2 # per-shader L1 texture cache  (READ-ONLY) config  {<nsets>:<bsize>:<assoc>,<rep>:<wr>:<alloc>:<wr_alloc>,<mshr>:<N>:<merge>,<mq>:<rf>}
-gpgpu_const_cache:l1 128:64:2,L:R:f:N:L,A:2:64,4 # per-shader L1 constant memory cache  (READ-ONLY) config  {<nsets>:<bsize>:<assoc>,<rep>:<wr>:<alloc>:<wr_alloc>,<mshr>:<N>:<merge>,<mq>} 
-gpgpu_cache:il1     8:128:4,L:R:f:N:L,A:2:48,4 # shader L1 instruction cache config  {<nsets>:<bsize>:<assoc>,<rep>:<wr>:<alloc>:<wr_alloc>,<mshr>:<N>:<merge>,<mq>} 
-gpgpu_cache:dl1     64:128:6,L:L:m:N:H,A:128:8,8 # per-shader L1 data cache config  {<nsets>:<bsize>:<assoc>,<rep>:<wr>:<alloc>:<wr_alloc>,<mshr>:<N>:<merge>,<mq> | none}
-gpgpu_cache:dl1PrefL1                 none # per-shader L1 data cache config  {<nsets>:<bsize>:<assoc>,<rep>:<wr>:<alloc>:<wr_alloc>,<mshr>:<N>:<merge>,<mq> | none}
-gpgpu_cache:dl1PrefShared                 none # per-shader L1 data cache config  {<nsets>:<bsize>:<assoc>,<rep>:<wr>:<alloc>:<wr_alloc>,<mshr>:<N>:<merge>,<mq> | none}
-gmem_skip_L1D                          1 # global memory access skip L1D cache (implements -Xptxas -dlcm=cg, default=no skip)
-gpgpu_perfect_mem                      0 # enable perfect memory mode (no cache miss)
-n_regfile_gating_group                    4 # group of lanes that should be read/written together)
-gpgpu_clock_gated_reg_file                    0 # enable clock gated reg file for power calculations
-gpgpu_clock_gated_lanes                    0 # enable clock gated lanes for power calculations
-gpgpu_shader_registers                65536 # Number of registers per shader core. Limits number of concurrent CTAs. (default 8192)
-gpgpu_shader_cta                      32 # Maximum number of concurrent CTAs in shader (default 8)
-gpgpu_num_cta_barriers                   16 # Maximum number of named barriers per CTA (default 16)
-gpgpu_n_clusters                      28 # number of processing clusters
-gpgpu_n_cores_per_cluster                    1 # number of simd cores per cluster
-gpgpu_n_cluster_ejection_buffer_size                    8 # number of packets in ejection buffer
-gpgpu_n_ldst_response_buffer_size                    2 # number of response packets in ld/st unit ejection buffer
-gpgpu_shmem_size                   16384 # Size of shared memory per shader core (default 16kB)
-gpgpu_shmem_size                   98304 # Size of shared memory per shader core (default 16kB)
-gpgpu_shmem_size_PrefL1                16384 # Size of shared memory per shader core (default 16kB)
-gpgpu_shmem_size_PrefShared                16384 # Size of shared memory per shader core (default 16kB)
-gpgpu_shmem_num_banks                   32 # Number of banks in the shared memory in each shader core (default 16)
-gpgpu_shmem_limited_broadcast                    0 # Limit shared memory to do one broadcast per cycle (default on)
-gpgpu_shmem_warp_parts                    1 # Number of portions a warp is divided into for shared memory bank conflict check 
-gpgpu_warpdistro_shader                   -1 # Specify which shader core to collect the warp size distribution from
-gpgpu_warp_issue_shader                    0 # Specify which shader core to collect the warp issue distribution from
-gpgpu_local_mem_map                    1 # Mapping from local memory space address to simulated GPU physical address space (default = enabled)
-gpgpu_num_reg_banks                   32 # Number of register banks (default = 8)
-gpgpu_reg_bank_use_warp_id                    0 # Use warp ID in mapping registers to banks (default = off)
-gpgpu_operand_collector_num_units_sp                   20 # number of collector units (default = 4)
-gpgpu_operand_collector_num_units_sfu                    4 # number of collector units (default = 4)
-gpgpu_operand_collector_num_units_mem                    8 # number of collector units (default = 2)
-gpgpu_operand_collector_num_units_gen                    0 # number of collector units (default = 0)
-gpgpu_operand_collector_num_in_ports_sp                    4 # number of collector unit in ports (default = 1)
-gpgpu_operand_collector_num_in_ports_sfu                    1 # number of collector unit in ports (default = 1)
-gpgpu_operand_collector_num_in_ports_mem                    1 # number of collector unit in ports (default = 1)
-gpgpu_operand_collector_num_in_ports_gen                    0 # number of collector unit in ports (default = 0)
-gpgpu_operand_collector_num_out_ports_sp                    4 # number of collector unit in ports (default = 1)
-gpgpu_operand_collector_num_out_ports_sfu                    1 # number of collector unit in ports (default = 1)
-gpgpu_operand_collector_num_out_ports_mem                    1 # number of collector unit in ports (default = 1)
-gpgpu_operand_collector_num_out_ports_gen                    0 # number of collector unit in ports (default = 0)
-gpgpu_coalesce_arch                   13 # Coalescing arch (default = 13, anything else is off for now)
-gpgpu_num_sched_per_core                    2 # Number of warp schedulers per core
-gpgpu_max_insn_issue_per_warp                    2 # Max number of instructions that can be issued per warp in one cycle by scheduler
-gpgpu_simt_core_sim_order                    1 # Select the simulation order of cores in a cluster (0=Fix, 1=Round-Robin)
-gpgpu_pipeline_widths        4,1,1,4,1,1,6 # Pipeline widths ID_OC_SP,ID_OC_SFU,ID_OC_MEM,OC_EX_SP,OC_EX_SFU,OC_EX_MEM,EX_WB
-gpgpu_num_sp_units                     4 # Number of SP units (default=1)
-gpgpu_num_sfu_units                    1 # Number of SF units (default=1)
-gpgpu_num_mem_units                    1 # Number if ldst units (default=1) WARNING: not hooked up to anything
-gpgpu_scheduler                      gto # Scheduler configuration: < lrr | gto | two_level_active > If two_level_active:<num_active_warps>:<inner_prioritization>:<outer_prioritization>For complete list of prioritization values see shader.h enum scheduler_prioritization_typeDefault: gto
-gpgpu_concurrent_kernel_sm                    0 # Support concurrent kernels on a SM (default = disabled)
-tlb_size                              16 # Number of tlb entries per SM.
-gpgpu_dram_scheduler                    1 # 0 = fifo, 1 = FR-FCFS (defaul)
-gpgpu_dram_partition_queues              8:8:8:8 # i2$:$2d:d2$:$2i
-l2_ideal                               0 # Use a ideal L2 cache that always hit
-gpgpu_cache:dl2     64:128:16,L:B:m:W:L,A:1024:1024,4:0,32 # unified banked L2 data cache config  {<nsets>:<bsize>:<assoc>,<rep>:<wr>:<alloc>:<wr_alloc>,<mshr>:<N>:<merge>,<mq>}
-gpgpu_cache:dl2_texture_only                    0 # L2 cache used for texture only
-gpgpu_n_mem                            4 # number of memory modules (e.g. memory controllers) in gpu
-gpgpu_n_sub_partition_per_mchannel                    2 # number of memory subpartition in each memory module
-gpgpu_n_mem_per_ctrlr                    1 # number of memory chips per memory controller
-gpgpu_memlatency_stat                   14 # track and display latency statistics 0x2 enables MC, 0x4 enables queue logs
-gpgpu_frfcfs_dram_sched_queue_size                   64 # 0 = unlimited (default); # entries per chip
-gpgpu_dram_return_queue_size                  116 # 0 = unlimited (default); # entries per chip
-gpgpu_dram_buswidth                    4 # default = 4 bytes (8 bytes per cycle at DDR)
-gpgpu_dram_burst_length                    8 # Burst length of each DRAM request (default = 4 data bus cycle)
-dram_data_command_freq_ratio                    4 # Frequency ratio between DRAM data bus and command bus (default = 2 times, i.e. DDR)
-gpgpu_dram_timing_opt nbk=16:CCD=2:RRD=6:RCD=12:RAS=28:RP=12:RC=40: CL=12:WL=4:CDLR=5:WR=12:nbkgrp=1:CCDL=0:RTPL=0 # DRAM timing parameters = {nbk:tCCD:tRRD:tRCD:tRAS:tRP:tRC:CL:WL:tCDLR:tWR:nbkgrp:tCCDL:tRTPL}
-rop_latency                          120 # ROP queue latency (default 85)
-dram_latency                         100 # DRAM latency (default 30)
-gpgpu_mem_addr_mapping dramid@8;00000000.00000000.00000000.00000000.0000RRRR.RRRRRRRR.RBBBCCCC.BCCSSSSS # mapping memory address to dram model {dramid@<start bit>;<memory address map>}
-gpgpu_mem_addr_test                    0 # run sweep test to check address mapping for aliased address
-gpgpu_mem_address_mask                    1 # 0 = old addressing mask, 1 = new addressing mask, 2 = new add. mask + flipped bank sel and chip sel bits
-gpuwattch_xml_file  gpuwattch_geforcegtx1080ti.xml # GPUWattch XML file
-power_simulation_enabled                    1 # Turn on power simulator (1=On, 0=Off)
-power_per_cycle_dump                    0 # Dump detailed power output each cycle
-power_trace_enabled                    0 # produce a file for the power trace (1=On, 0=Off)
-power_trace_zlevel                     6 # Compression level of the power trace output log (0=no comp, 9=highest)
-steady_power_levels_enabled                    0 # produce a file for the steady power levels (1=On, 0=Off)
-steady_state_definition                  8:4 # allowed deviation:number of samples
-gpgpu_max_cycle                        0 # terminates gpu simulation early (0 = no limit)
-gpgpu_max_insn                         0 # terminates gpu simulation early (0 = no limit)
-gpgpu_max_cta                          0 # terminates gpu simulation early (0 = no limit)
-gpgpu_runtime_stat                   500 # display runtime statistics such as dram utilization {<freq>:<flag>}
-liveness_message_freq                    1 # Minimum number of seconds between simulation liveness messages (0 = always print)
-gpgpu_flush_l1_cache                    0 # Flush L1 cache at the end of each kernel call
-gpgpu_flush_l2_cache                    0 # Flush L2 cache at the end of each kernel call
-gpgpu_deadlock_detect                    0 # Stop the simulation at deadlock (1=on (default), 0=off)
-gpgpu_ptx_instruction_classification                    0 # if enabled will classify ptx instruction types per kernel (Max 255 kernels now)
-gpgpu_ptx_sim_mode                     0 # Select between Performance (default) or Functional simulation (1)
-gpgpu_clock_domains 1481.0:2962.0:1481.0:2750.0 # Clock Domain Frequencies in MhZ {<Core Clock>:<ICNT Clock>:<L2 Clock>:<DRAM Clock>}
-gpgpu_max_concurrent_kernel                    8 # maximum kernels that can run concurrently on GPU
-gpgpu_cflog_interval                    0 # Interval between each snapshot in control flow logger
-visualizer_enabled                     0 # Turn on visualizer output (1=On, 0=Off)
-visualizer_outputfile                 NULL # Specifies the output log file for visualizer
-visualizer_zlevel                      6 # Compression level of the visualizer output log (0=no comp, 9=highest)
-trace_enabled                          0 # Turn on traces
-trace_components                    none # comma seperated list of traces to enable. Complete list found in trace_streams.tup. Default none
-trace_sampling_core                    0 # The core which is printed using CORE_DPRINTF. Default 0
-trace_sampling_memory_partition                   -1 # The memory partition which is printed using MEMPART_DPRINTF. Default -1 (i.e. all)
-gddr_size                          256MB # Size of GDDR in MB/GB.(GLOBAL_HEAP_START, GLOBAL_HEAP_START + gddr_size) would be used for unmanged memory, (GLOBAL_HEAP_START + gddr_size, GLOBAL_HEAP_START + gddr_size*2) would be used for managed memory. 
-page_table_walk_latency                  100 # Average page table walk latency (in core cycle).
-eviction_policy                        5 # Select page eviction policy
-invalidate_clean                       0 # Should directly invalidate clean pages
-reserve_accessed_page_percent                    0 # Percentage of accessed pages reserved from eviction in hope that they will be accessed in next iteration.
-percentage_of_free_page_buffer                    0 # Percentage of free page buffer to trigger the page eviction.
-page_size                            4KB # GDDR page size, only 4KB/2MB avaliable.
-pcie_bandwidth                  16.0GB/s # PCI-e bandwidth per direction, in GB/s.
-enable_dma                             0 # Enable direct access to CPU memory
-multiply_dma_penalty                    2 # Oversubscription Multiplicative Penalty Factor for Adaptive DMA
-migrate_threshold                      8 # Access counter threshold for migrating the page from cpu to gpu
-sim_prof_enable                        1 # Enable gpgpu-sim profiler
-hardware_prefetch                      2 # Select gpgpu-sim hardware prefetcher
-hwprefetch_oversub                     2 # Select gpgpu-sim hardware prefetcher under over-subscription
-page_fault_latency                 66645 # Average fault latency (in core cycle).
-enable_accurate_simulation                    0 # Enable page fault functional simulation.
-enable_smart_runtime                    0 # Enable access pattern detection, policy engine, and adaptive memory management.
-enable_ptx_file_line_stats                    1 # Turn on PTX source line statistic profiling. (1 = On)
-ptx_line_stats_filename gpgpu_inst_stats.txt # Output file for PTX source line statistics.
-gpgpu_kernel_launch_latency               222150 # Kernel launch latency in cycles. Default: 0
-gpgpu_cdp_enabled                      0 # Turn on CDP
-save_embedded_ptx                      0 # saves ptx files embedded in binary as <n>.ptx
-keep                                   0 # keep intermediate files created by GPGPU-Sim when interfacing with external programs
-gpgpu_ptx_save_converted_ptxplus                    0 # Saved converted ptxplus to a file
-ptx_opcode_latency_int         4,13,4,5,145 # Opcode latencies for integers <ADD,MAX,MUL,MAD,DIV>Default 1,1,19,25,145
-ptx_opcode_latency_fp          4,13,4,5,39 # Opcode latencies for single precision floating points <ADD,MAX,MUL,MAD,DIV>Default 1,1,1,1,30
-ptx_opcode_latency_dp         8,19,8,8,330 # Opcode latencies for double precision floating points <ADD,MAX,MUL,MAD,DIV>Default 8,8,8,8,335
-ptx_opcode_initiation_int            1,2,2,2,8 # Opcode initiation intervals for integers <ADD,MAX,MUL,MAD,DIV>Default 1,1,4,4,32
-ptx_opcode_initiation_fp            1,2,1,1,4 # Opcode initiation intervals for single precision floating points <ADD,MAX,MUL,MAD,DIV>Default 1,1,1,1,5
-ptx_opcode_initiation_dp          1,2,1,1,130 # Opcode initiation intervals for double precision floating points <ADD,MAX,MUL,MAD,DIV>Default 8,8,8,8,130
-cdp_latency         7200,8000,100,12000,1600 # CDP API latency <cudaStreamCreateWithFlags, cudaGetParameterBufferV2_init_perWarp, cudaGetParameterBufferV2_perKernel, cudaLaunchDeviceV2_init_perWarp, cudaLaunchDevicV2_perKernel>Default 7200,8000,100,12000,1600
DRAM Timing Options:
nbk                                    16 # number of banks
CCD                                     2 # column to column delay
RRD                                     6 # minimal delay between activation of rows in different banks
RCD                                    12 # row to column delay
RAS                                    28 # time needed to activate row
RP                                     12 # time needed to precharge (deactivate) row
RC                                     40 # row cycle time
CDLR                                    5 # switching from write to read (changes tWTR)
WR                                     12 # last data-in to row precharge
CL                                     12 # CAS latency
WL                                      4 # Write latency
nbkgrp                                  1 # number of bank groups
CCDL                                    0 # column to column delay between accesses to different bank groups
RTPL                                    0 # read to precharge delay between accesses to different bank groups
Total number of memory sub partition = 8
addr_dec_mask[CHIP]  = 0000000000000300 	high:10 low:8
addr_dec_mask[BK]    = 000000000001c080 	high:17 low:7
addr_dec_mask[ROW]   = 000000003ffe0000 	high:30 low:17
addr_dec_mask[COL]   = 0000000000003c7f 	high:14 low:0
addr_dec_mask[BURST] = 000000000000001f 	high:5 low:0
sub_partition_id_mask = 0000000000000080
GPGPU-Sim uArch: clock freqs: 1481000000.000000:2962000000.000000:1481000000.000000:2750000000.000000
GPGPU-Sim uArch: clock periods: 0.00000000067521944632:0.00000000033760972316:0.00000000067521944632:0.00000000036363636364
*** Initializing Memory Statistics ***
GPGPU-Sim uArch: interconnect node map (shaderID+MemID to icntID)
GPGPU-Sim uArch: Memory nodes ID start from index: 28
GPGPU-Sim uArch:    0   1   2   3   4   5   6
GPGPU-Sim uArch:    7   8   9  10  11  12  13
GPGPU-Sim uArch:   14  15  16  17  18  19  20
GPGPU-Sim uArch:   21  22  23  24  25  26  27
GPGPU-Sim uArch:   28  29  30  31  32  33  34
GPGPU-Sim uArch:   35  36  37  38  39  40  41
GPGPU-Sim uArch:   42  43  44  45  46  47  48
GPGPU-Sim uArch:   49
GPGPU-Sim uArch: interconnect node reverse map (icntID to shaderID+MemID)
GPGPU-Sim uArch: Memory nodes start from ID: 28
GPGPU-Sim uArch:    0   1   2   3   4   5   6
GPGPU-Sim uArch:    7   8   9  10  11  12  13
GPGPU-Sim uArch:   14  15  16  17  18  19  20
GPGPU-Sim uArch:   21  22  23  24  25  26  27
GPGPU-Sim uArch:   28  29  30  31  32  33  34
GPGPU-Sim uArch:   35  36  37  38  39  40  41
GPGPU-Sim uArch:   42  43  44  45  46  47  48
GPGPU-Sim uArch:   49
baa7c2d59e31b41191c0e1436da12054  /root/uvmsmart/benchmarks/Managed/FDTD-2D/main
GPGPU-Sim uArch: performance model initialization complete.
GPGPU-Sim PTX: __cudaRegisterFatBinary, fat_cubin_handle = 1, filename=default
self exe links to: /root/uvmsmart/benchmarks/Managed/FDTD-2D/main
Running md5sum using "md5sum /root/uvmsmart/benchmarks/Managed/FDTD-2D/main "
Parsing file _cuobjdump_complete_output_AMzOsG
######### cuobjdump parser ########
## Adding new section ELF
Adding arch: sm_20
Adding identifier: default
## Adding new section ELF
Adding arch: sm_20
Adding identifier: default
## Adding new section PTX
Adding ptx filename: _cuobjdump_1.ptx
Adding arch: sm_20
Adding identifier: default
Done parsing!!!
GPGPU-Sim PTX: __cudaRegisterFunction _Z17fdtd_step3_kernelPfS_S_i : hostFun 0x0x401766, fat_cubin_handle = 1
GPGPU-Sim PTX: instruction assembly for function '_Z17fdtd_step1_kernelPfS_S_S_i'...   done.
GPGPU-Sim PTX: finding reconvergence points for '_Z17fdtd_step1_kernelPfS_S_S_i'...
GPGPU-Sim PTX: Finding dominators for '_Z17fdtd_step1_kernelPfS_S_S_i'...
GPGPU-Sim PTX: Finding immediate dominators for '_Z17fdtd_step1_kernelPfS_S_S_i'...
GPGPU-Sim PTX: Finding postdominators for '_Z17fdtd_step1_kernelPfS_S_S_i'...
GPGPU-Sim PTX: Finding immediate postdominators for '_Z17fdtd_step1_kernelPfS_S_S_i'...
GPGPU-Sim PTX: pre-decoding instructions for '_Z17fdtd_step1_kernelPfS_S_S_i'...
GPGPU-Sim PTX: reconvergence points for _Z17fdtd_step1_kernelPfS_S_S_i...
GPGPU-Sim PTX:  1 (potential) branch divergence @  PC=0x080 (_1.ptx:44) @!%p3 bra BB0_4;
GPGPU-Sim PTX:    immediate post dominator      @  PC=0x150 (_1.ptx:77) ret;
GPGPU-Sim PTX:  2 (potential) branch divergence @  PC=0x088 (_1.ptx:45) bra.uni BB0_1;
GPGPU-Sim PTX:    immediate post dominator      @  PC=0x090 (_1.ptx:48) setp.eq.s32%p4, %r2, 0;
GPGPU-Sim PTX:  3 (potential) branch divergence @  PC=0x098 (_1.ptx:49) @%p4 bra BB0_3;
GPGPU-Sim PTX:    immediate post dominator      @  PC=0x150 (_1.ptx:77) ret;
GPGPU-Sim PTX:  4 (potential) branch divergence @  PC=0x110 (_1.ptx:65) bra.uni BB0_4;
GPGPU-Sim PTX:    immediate post dominator      @  PC=0x150 (_1.ptx:77) ret;
GPGPU-Sim PTX: ... end of reconvergence points for _Z17fdtd_step1_kernelPfS_S_S_i
GPGPU-Sim PTX: ... done pre-decoding instructions for '_Z17fdtd_step1_kernelPfS_S_S_i'.
GPGPU-Sim PTX: instruction assembly for function '_Z17fdtd_step2_kernelPfS_S_i'...   done.
GPGPU-Sim PTX: finding reconvergence points for '_Z17fdtd_step2_kernelPfS_S_i'...
GPGPU-Sim PTX: Finding dominators for '_Z17fdtd_step2_kernelPfS_S_i'...
GPGPU-Sim PTX: Finding immediate dominators for '_Z17fdtd_step2_kernelPfS_S_i'...
GPGPU-Sim PTX: Finding postdominators for '_Z17fdtd_step2_kernelPfS_S_i'...
GPGPU-Sim PTX: Finding immediate postdominators for '_Z17fdtd_step2_kernelPfS_S_i'...
GPGPU-Sim PTX: pre-decoding instructions for '_Z17fdtd_step2_kernelPfS_S_i'...
GPGPU-Sim PTX: reconvergence points for _Z17fdtd_step2_kernelPfS_S_i...
GPGPU-Sim PTX:  1 (potential) branch divergence @  PC=0x1d0 (_1.ptx:109) @!%p5 bra BB1_2;
GPGPU-Sim PTX:    immediate post dominator      @  PC=0x268 (_1.ptx:132) ret;
GPGPU-Sim PTX:  2 (potential) branch divergence @  PC=0x1d8 (_1.ptx:110) bra.uni BB1_1;
GPGPU-Sim PTX:    immediate post dominator      @  PC=0x1e0 (_1.ptx:113) cvta.to.global.u64 %rd3, %rd2;
GPGPU-Sim PTX: ... end of reconvergence points for _Z17fdtd_step2_kernelPfS_S_i
GPGPU-Sim PTX: ... done pre-decoding instructions for '_Z17fdtd_step2_kernelPfS_S_i'.
GPGPU-Sim PTX: instruction assembly for function '_Z17fdtd_step3_kernelPfS_S_i'...   done.
GPGPU-Sim PTX: finding reconvergence points for '_Z17fdtd_step3_kernelPfS_S_i'...
GPGPU-Sim PTX: Finding dominators for '_Z17fdtd_step3_kernelPfS_S_i'...
GPGPU-Sim PTX: Finding immediate dominators for '_Z17fdtd_step3_kernelPfS_S_i'...
GPGPU-Sim PTX: Finding postdominators for '_Z17fdtd_step3_kernelPfS_S_i'...
GPGPU-Sim PTX: Finding immediate postdominators for '_Z17fdtd_step3_kernelPfS_S_i'...
GPGPU-Sim PTX: pre-decoding instructions for '_Z17fdtd_step3_kernelPfS_S_i'...
GPGPU-Sim PTX: reconvergence points for _Z17fdtd_step3_kernelPfS_S_i...
GPGPU-Sim PTX:  1 (potential) branch divergence @  PC=0x2e0 (_1.ptx:163) @!%p3 bra BB2_2;
GPGPU-Sim PTX:    immediate post dominator      @  PC=0x390 (_1.ptx:189) ret;
GPGPU-Sim PTX:  2 (potential) branch divergence @  PC=0x2e8 (_1.ptx:164) bra.uni BB2_1;
GPGPU-Sim PTX:    immediate post dominator      @  PC=0x2f0 (_1.ptx:167) cvta.to.global.u64 %rd4, %rd2;
GPGPU-Sim PTX: ... end of reconvergence points for _Z17fdtd_step3_kernelPfS_S_i
GPGPU-Sim PTX: ... done pre-decoding instructions for '_Z17fdtd_step3_kernelPfS_S_i'.
GPGPU-Sim PTX: finished parsing EMBEDDED .ptx file _1.ptx
Adding _cuobjdump_1.ptx with cubin handle 1
GPGPU-Sim PTX: extracting embedded .ptx to temporary file "_ptx_gSv6ic"
Running: cat _ptx_gSv6ic | sed 's/.version 1.5/.version 1.4/' | sed 's/, texmode_independent//' | sed 's/\(\.extern \.const\[1\] .b8 \w\+\)\[\]/\1\[1\]/' | sed 's/const\[.\]/const\[0\]/g' > _ptx2_obrr9H
GPGPU-Sim PTX: generating ptxinfo using "$CUDA_INSTALL_PATH/bin/ptxas --gpu-name=sm_20 -v _ptx2_obrr9H --output-file  /dev/null 2> _ptx_gSv6icinfo"
GPGPU-Sim PTX: Kernel '_Z17fdtd_step2_kernelPfS_S_i' : regs=10, lmem=0, smem=0, cmem=60
GPGPU-Sim PTX: Kernel '_Z17fdtd_step1_kernelPfS_S_S_i' : regs=10, lmem=0, smem=0, cmem=68
GPGPU-Sim PTX: Kernel '_Z17fdtd_step3_kernelPfS_S_i' : regs=12, lmem=0, smem=0, cmem=64
GPGPU-Sim PTX: removing ptxinfo using "rm -f _ptx_gSv6ic _ptx2_obrr9H _ptx_gSv6icinfo"
GPGPU-Sim PTX: loading globals with explicit initializers... 
GPGPU-Sim PTX: finished loading globals (0 bytes total).
GPGPU-Sim PTX: loading constants with explicit initializers...  done.
GPGPU-Sim PTX: __cudaRegisterFunction _Z17fdtd_step2_kernelPfS_S_i : hostFun 0x0x40167f, fat_cubin_handle = 1
GPGPU-Sim PTX: __cudaRegisterFunction _Z17fdtd_step1_kernelPfS_S_S_i : hostFun 0x0x40158c, fat_cubin_handle = 1

GPGPU-Sim PTX: cudaLaunch for 0x0x40158c (mode=performance simulation) on stream 0
GPGPU-Sim PTX: pushing kernel '_Z17fdtd_step1_kernelPfS_S_S_i' to stream 0, gridDim= (38,150,1) blockDim = (32,8,1) 
GPGPU-Sim uArch: Shader 1 bind to kernel 1 '_Z17fdtd_step1_kernelPfS_S_S_i'
GPGPU-Sim uArch: CTA/core = 8, limited by: threads
GPGPU-Sim uArch: Shader 2 bind to kernel 1 '_Z17fdtd_step1_kernelPfS_S_S_i'
GPGPU-Sim uArch: Shader 3 bind to kernel 1 '_Z17fdtd_step1_kernelPfS_S_S_i'
GPGPU-Sim uArch: Shader 4 bind to kernel 1 '_Z17fdtd_step1_kernelPfS_S_S_i'
GPGPU-Sim uArch: Shader 5 bind to kernel 1 '_Z17fdtd_step1_kernelPfS_S_S_i'
GPGPU-Sim uArch: Shader 6 bind to kernel 1 '_Z17fdtd_step1_kernelPfS_S_S_i'
GPGPU-Sim uArch: Shader 7 bind to kernel 1 '_Z17fdtd_step1_kernelPfS_S_S_i'
GPGPU-Sim uArch: Shader 8 bind to kernel 1 '_Z17fdtd_step1_kernelPfS_S_S_i'
GPGPU-Sim uArch: Shader 9 bind to kernel 1 '_Z17fdtd_step1_kernelPfS_S_S_i'
GPGPU-Sim uArch: Shader 10 bind to kernel 1 '_Z17fdtd_step1_kernelPfS_S_S_i'
GPGPU-Sim uArch: Shader 11 bind to kernel 1 '_Z17fdtd_step1_kernelPfS_S_S_i'
GPGPU-Sim uArch: Shader 12 bind to kernel 1 '_Z17fdtd_step1_kernelPfS_S_S_i'
GPGPU-Sim uArch: Shader 13 bind to kernel 1 '_Z17fdtd_step1_kernelPfS_S_S_i'
GPGPU-Sim uArch: Shader 14 bind to kernel 1 '_Z17fdtd_step1_kernelPfS_S_S_i'
GPGPU-Sim uArch: Shader 15 bind to kernel 1 '_Z17fdtd_step1_kernelPfS_S_S_i'
GPGPU-Sim uArch: Shader 16 bind to kernel 1 '_Z17fdtd_step1_kernelPfS_S_S_i'
GPGPU-Sim uArch: Shader 17 bind to kernel 1 '_Z17fdtd_step1_kernelPfS_S_S_i'
GPGPU-Sim uArch: Shader 18 bind to kernel 1 '_Z17fdtd_step1_kernelPfS_S_S_i'
GPGPU-Sim uArch: Shader 19 bind to kernel 1 '_Z17fdtd_step1_kernelPfS_S_S_i'
GPGPU-Sim uArch: Shader 20 bind to kernel 1 '_Z17fdtd_step1_kernelPfS_S_S_i'
GPGPU-Sim uArch: Shader 21 bind to kernel 1 '_Z17fdtd_step1_kernelPfS_S_S_i'
GPGPU-Sim uArch: Shader 22 bind to kernel 1 '_Z17fdtd_step1_kernelPfS_S_S_i'
GPGPU-Sim uArch: Shader 23 bind to kernel 1 '_Z17fdtd_step1_kernelPfS_S_S_i'
GPGPU-Sim uArch: Shader 24 bind to kernel 1 '_Z17fdtd_step1_kernelPfS_S_S_i'
GPGPU-Sim uArch: Shader 25 bind to kernel 1 '_Z17fdtd_step1_kernelPfS_S_S_i'
GPGPU-Sim uArch: Shader 26 bind to kernel 1 '_Z17fdtd_step1_kernelPfS_S_S_i'
GPGPU-Sim uArch: Shader 27 bind to kernel 1 '_Z17fdtd_step1_kernelPfS_S_S_i'
GPGPU-Sim uArch: Shader 0 bind to kernel 1 '_Z17fdtd_step1_kernelPfS_S_S_i'
GPGPU-Sim uArch: Shader 0 bind to kernel 1 '_Z17fdtd_step1_kernelPfS_S_S_i'
GPGPU-Sim uArch: Shader 1 bind to kernel 1 '_Z17fdtd_step1_kernelPfS_S_S_i'
GPGPU-Sim uArch: Shader 2 bind to kernel 1 '_Z17fdtd_step1_kernelPfS_S_S_i'
GPGPU-Sim uArch: Shader 3 bind to kernel 1 '_Z17fdtd_step1_kernelPfS_S_S_i'
GPGPU-Sim uArch: Shader 4 bind to kernel 1 '_Z17fdtd_step1_kernelPfS_S_S_i'
GPGPU-Sim uArch: Shader 5 bind to kernel 1 '_Z17fdtd_step1_kernelPfS_S_S_i'
GPGPU-Sim uArch: Shader 6 bind to kernel 1 '_Z17fdtd_step1_kernelPfS_S_S_i'
GPGPU-Sim uArch: Shader 7 bind to kernel 1 '_Z17fdtd_step1_kernelPfS_S_S_i'
GPGPU-Sim uArch: Shader 8 bind to kernel 1 '_Z17fdtd_step1_kernelPfS_S_S_i'
GPGPU-Sim uArch: Shader 9 bind to kernel 1 '_Z17fdtd_step1_kernelPfS_S_S_i'
GPGPU-Sim uArch: Shader 10 bind to kernel 1 '_Z17fdtd_step1_kernelPfS_S_S_i'
GPGPU-Sim uArch: Shader 11 bind to kernel 1 '_Z17fdtd_step1_kernelPfS_S_S_i'
GPGPU-Sim uArch: Shader 12 bind to kernel 1 '_Z17fdtd_step1_kernelPfS_S_S_i'
GPGPU-Sim uArch: Shader 13 bind to kernel 1 '_Z17fdtd_step1_kernelPfS_S_S_i'
GPGPU-Sim uArch: Shader 14 bind to kernel 1 '_Z17fdtd_step1_kernelPfS_S_S_i'
GPGPU-Sim uArch: Shader 15 bind to kernel 1 '_Z17fdtd_step1_kernelPfS_S_S_i'
GPGPU-Sim uArch: Shader 16 bind to kernel 1 '_Z17fdtd_step1_kernelPfS_S_S_i'
GPGPU-Sim uArch: Shader 17 bind to kernel 1 '_Z17fdtd_step1_kernelPfS_S_S_i'
GPGPU-Sim uArch: Shader 18 bind to kernel 1 '_Z17fdtd_step1_kernelPfS_S_S_i'
GPGPU-Sim uArch: Shader 19 bind to kernel 1 '_Z17fdtd_step1_kernelPfS_S_S_i'
GPGPU-Sim uArch: Shader 20 bind to kernel 1 '_Z17fdtd_step1_kernelPfS_S_S_i'
GPGPU-Sim uArch: Shader 21 bind to kernel 1 '_Z17fdtd_step1_kernelPfS_S_S_i'
GPGPU-Sim uArch: Shader 22 bind to kernel 1 '_Z17fdtd_step1_kernelPfS_S_S_i'
GPGPU-Sim uArch: Shader 23 bind to kernel 1 '_Z17fdtd_step1_kernelPfS_S_S_i'
GPGPU-Sim uArch: Shader 24 bind to kernel 1 '_Z17fdtd_step1_kernelPfS_S_S_i'
GPGPU-Sim uArch: Shader 25 bind to kernel 1 '_Z17fdtd_step1_kernelPfS_S_S_i'
GPGPU-Sim uArch: Shader 26 bind to kernel 1 '_Z17fdtd_step1_kernelPfS_S_S_i'
GPGPU-Sim uArch: Shader 27 bind to kernel 1 '_Z17fdtd_step1_kernelPfS_S_S_i'
GPGPU-Sim uArch: Shader 0 bind to kernel 1 '_Z17fdtd_step1_kernelPfS_S_S_i'
GPGPU-Sim uArch: Shader 1 bind to kernel 1 '_Z17fdtd_step1_kernelPfS_S_S_i'
GPGPU-Sim uArch: Shader 24 bind to kernel 1 '_Z17fdtd_step1_kernelPfS_S_S_i'
GPGPU-Sim uArch: Shader 25 bind to kernel 1 '_Z17fdtd_step1_kernelPfS_S_S_i'
GPGPU-Sim uArch: Shader 26 bind to kernel 1 '_Z17fdtd_step1_kernelPfS_S_S_i'
GPGPU-Sim uArch: Shader 27 bind to kernel 1 '_Z17fdtd_step1_kernelPfS_S_S_i'
GPGPU-Sim uArch: Shader 0 bind to kernel 1 '_Z17fdtd_step1_kernelPfS_S_S_i'
GPGPU-Sim uArch: Shader 1 bind to kernel 1 '_Z17fdtd_step1_kernelPfS_S_S_i'
GPGPU-Sim uArch: Shader 2 bind to kernel 1 '_Z17fdtd_step1_kernelPfS_S_S_i'
GPGPU-Sim uArch: Shader 3 bind to kernel 1 '_Z17fdtd_step1_kernelPfS_S_S_i'
GPGPU-Sim uArch: Shader 4 bind to kernel 1 '_Z17fdtd_step1_kernelPfS_S_S_i'
GPGPU-Sim uArch: Shader 5 bind to kernel 1 '_Z17fdtd_step1_kernelPfS_S_S_i'
GPGPU-Sim uArch: Shader 6 bind to kernel 1 '_Z17fdtd_step1_kernelPfS_S_S_i'
GPGPU-Sim uArch: Shader 7 bind to kernel 1 '_Z17fdtd_step1_kernelPfS_S_S_i'
GPGPU-Sim uArch: Shader 8 bind to kernel 1 '_Z17fdtd_step1_kernelPfS_S_S_i'
GPGPU-Sim uArch: Shader 9 bind to kernel 1 '_Z17fdtd_step1_kernelPfS_S_S_i'
GPGPU-Sim uArch: Shader 10 bind to kernel 1 '_Z17fdtd_step1_kernelPfS_S_S_i'
GPGPU-Sim uArch: Shader 11 bind to kernel 1 '_Z17fdtd_step1_kernelPfS_S_S_i'
GPGPU-Sim uArch: Shader 12 bind to kernel 1 '_Z17fdtd_step1_kernelPfS_S_S_i'
GPGPU-Sim uArch: Shader 13 bind to kernel 1 '_Z17fdtd_step1_kernelPfS_S_S_i'
GPGPU-Sim uArch: Shader 14 bind to kernel 1 '_Z17fdtd_step1_kernelPfS_S_S_i'
GPGPU-Sim uArch: Shader 15 bind to kernel 1 '_Z17fdtd_step1_kernelPfS_S_S_i'
GPGPU-Sim uArch: Shader 16 bind to kernel 1 '_Z17fdtd_step1_kernelPfS_S_S_i'
GPGPU-Sim uArch: Shader 17 bind to kernel 1 '_Z17fdtd_step1_kernelPfS_S_S_i'
GPGPU-Sim uArch: Shader 18 bind to kernel 1 '_Z17fdtd_step1_kernelPfS_S_S_i'
GPGPU-Sim uArch: Shader 19 bind to kernel 1 '_Z17fdtd_step1_kernelPfS_S_S_i'
GPGPU-Sim uArch: Shader 20 bind to kernel 1 '_Z17fdtd_step1_kernelPfS_S_S_i'
GPGPU-Sim uArch: Shader 21 bind to kernel 1 '_Z17fdtd_step1_kernelPfS_S_S_i'
GPGPU-Sim uArch: Shader 22 bind to kernel 1 '_Z17fdtd_step1_kernelPfS_S_S_i'
GPGPU-Sim uArch: Shader 23 bind to kernel 1 '_Z17fdtd_step1_kernelPfS_S_S_i'
GPGPU-Sim uArch: Shader 24 bind to kernel 1 '_Z17fdtd_step1_kernelPfS_S_S_i'
GPGPU-Sim uArch: Shader 25 bind to kernel 1 '_Z17fdtd_step1_kernelPfS_S_S_i'
GPGPU-Sim uArch: Shader 26 bind to kernel 1 '_Z17fdtd_step1_kernelPfS_S_S_i'
GPGPU-Sim uArch: Shader 27 bind to kernel 1 '_Z17fdtd_step1_kernelPfS_S_S_i'
GPGPU-Sim uArch: Shader 0 bind to kernel 1 '_Z17fdtd_step1_kernelPfS_S_S_i'
GPGPU-Sim uArch: Shader 1 bind to kernel 1 '_Z17fdtd_step1_kernelPfS_S_S_i'
GPGPU-Sim uArch: Shader 2 bind to kernel 1 '_Z17fdtd_step1_kernelPfS_S_S_i'
GPGPU-Sim uArch: Shader 3 bind to kernel 1 '_Z17fdtd_step1_kernelPfS_S_S_i'
GPGPU-Sim uArch: Shader 4 bind to kernel 1 '_Z17fdtd_step1_kernelPfS_S_S_i'
GPGPU-Sim uArch: Shader 5 bind to kernel 1 '_Z17fdtd_step1_kernelPfS_S_S_i'
GPGPU-Sim uArch: Shader 6 bind to kernel 1 '_Z17fdtd_step1_kernelPfS_S_S_i'
GPGPU-Sim uArch: Shader 7 bind to kernel 1 '_Z17fdtd_step1_kernelPfS_S_S_i'
GPGPU-Sim uArch: Shader 8 bind to kernel 1 '_Z17fdtd_step1_kernelPfS_S_S_i'
GPGPU-Sim uArch: Shader 9 bind to kernel 1 '_Z17fdtd_step1_kernelPfS_S_S_i'
GPGPU-Sim uArch: Shader 10 bind to kernel 1 '_Z17fdtd_step1_kernelPfS_S_S_i'
GPGPU-Sim uArch: Shader 11 bind to kernel 1 '_Z17fdtd_step1_kernelPfS_S_S_i'
GPGPU-Sim uArch: Shader 12 bind to kernel 1 '_Z17fdtd_step1_kernelPfS_S_S_i'
GPGPU-Sim uArch: Shader 13 bind to kernel 1 '_Z17fdtd_step1_kernelPfS_S_S_i'
GPGPU-Sim uArch: Shader 19 bind to kernel 1 '_Z17fdtd_step1_kernelPfS_S_S_i'
GPGPU-Sim uArch: Shader 20 bind to kernel 1 '_Z17fdtd_step1_kernelPfS_S_S_i'
GPGPU-Sim uArch: Shader 21 bind to kernel 1 '_Z17fdtd_step1_kernelPfS_S_S_i'
GPGPU-Sim uArch: Shader 22 bind to kernel 1 '_Z17fdtd_step1_kernelPfS_S_S_i'
GPGPU-Sim uArch: Shader 23 bind to kernel 1 '_Z17fdtd_step1_kernelPfS_S_S_i'
GPGPU-Sim uArch: Shader 24 bind to kernel 1 '_Z17fdtd_step1_kernelPfS_S_S_i'
GPGPU-Sim uArch: Shader 25 bind to kernel 1 '_Z17fdtd_step1_kernelPfS_S_S_i'
GPGPU-Sim uArch: Shader 26 bind to kernel 1 '_Z17fdtd_step1_kernelPfS_S_S_i'
GPGPU-Sim uArch: Shader 27 bind to kernel 1 '_Z17fdtd_step1_kernelPfS_S_S_i'
GPGPU-Sim uArch: Shader 0 bind to kernel 1 '_Z17fdtd_step1_kernelPfS_S_S_i'
GPGPU-Sim uArch: Shader 1 bind to kernel 1 '_Z17fdtd_step1_kernelPfS_S_S_i'
GPGPU-Sim uArch: Shader 2 bind to kernel 1 '_Z17fdtd_step1_kernelPfS_S_S_i'
GPGPU-Sim uArch: Shader 3 bind to kernel 1 '_Z17fdtd_step1_kernelPfS_S_S_i'
GPGPU-Sim uArch: Shader 4 bind to kernel 1 '_Z17fdtd_step1_kernelPfS_S_S_i'
GPGPU-Sim uArch: Shader 5 bind to kernel 1 '_Z17fdtd_step1_kernelPfS_S_S_i'
GPGPU-Sim uArch: Shader 6 bind to kernel 1 '_Z17fdtd_step1_kernelPfS_S_S_i'
GPGPU-Sim uArch: Shader 7 bind to kernel 1 '_Z17fdtd_step1_kernelPfS_S_S_i'
GPGPU-Sim uArch: Shader 8 bind to kernel 1 '_Z17fdtd_step1_kernelPfS_S_S_i'
GPGPU-Sim uArch: Shader 9 bind to kernel 1 '_Z17fdtd_step1_kernelPfS_S_S_i'
GPGPU-Sim uArch: Shader 10 bind to kernel 1 '_Z17fdtd_step1_kernelPfS_S_S_i'
GPGPU-Sim uArch: Shader 11 bind to kernel 1 '_Z17fdtd_step1_kernelPfS_S_S_i'
GPGPU-Sim uArch: Shader 12 bind to kernel 1 '_Z17fdtd_step1_kernelPfS_S_S_i'
GPGPU-Sim uArch: Shader 13 bind to kernel 1 '_Z17fdtd_step1_kernelPfS_S_S_i'
GPGPU-Sim uArch: Shader 14 bind to kernel 1 '_Z17fdtd_step1_kernelPfS_S_S_i'
GPGPU-Sim uArch: Shader 15 bind to kernel 1 '_Z17fdtd_step1_kernelPfS_S_S_i'
GPGPU-Sim uArch: Shader 16 bind to kernel 1 '_Z17fdtd_step1_kernelPfS_S_S_i'
GPGPU-Sim uArch: Shader 17 bind to kernel 1 '_Z17fdtd_step1_kernelPfS_S_S_i'
GPGPU-Sim uArch: Shader 18 bind to kernel 1 '_Z17fdtd_step1_kernelPfS_S_S_i'
GPGPU-Sim uArch: Shader 19 bind to kernel 1 '_Z17fdtd_step1_kernelPfS_S_S_i'
GPGPU-Sim uArch: Shader 20 bind to kernel 1 '_Z17fdtd_step1_kernelPfS_S_S_i'
GPGPU-Sim uArch: Shader 21 bind to kernel 1 '_Z17fdtd_step1_kernelPfS_S_S_i'
GPGPU-Sim uArch: Shader 22 bind to kernel 1 '_Z17fdtd_step1_kernelPfS_S_S_i'
GPGPU-Sim uArch: Shader 23 bind to kernel 1 '_Z17fdtd_step1_kernelPfS_S_S_i'
GPGPU-Sim uArch: Shader 24 bind to kernel 1 '_Z17fdtd_step1_kernelPfS_S_S_i'
GPGPU-Sim uArch: Shader 25 bind to kernel 1 '_Z17fdtd_step1_kernelPfS_S_S_i'
GPGPU-Sim uArch: Shader 26 bind to kernel 1 '_Z17fdtd_step1_kernelPfS_S_S_i'
GPGPU-Sim uArch: Shader 27 bind to kernel 1 '_Z17fdtd_step1_kernelPfS_S_S_i'
GPGPU-Sim uArch: Shader 0 bind to kernel 1 '_Z17fdtd_step1_kernelPfS_S_S_i'
GPGPU-Sim uArch: Shader 1 bind to kernel 1 '_Z17fdtd_step1_kernelPfS_S_S_i'
GPGPU-Sim uArch: Shader 2 bind to kernel 1 '_Z17fdtd_step1_kernelPfS_S_S_i'
GPGPU-Sim uArch: Shader 3 bind to kernel 1 '_Z17fdtd_step1_kernelPfS_S_S_i'
GPGPU-Sim uArch: Shader 4 bind to kernel 1 '_Z17fdtd_step1_kernelPfS_S_S_i'
GPGPU-Sim uArch: Shader 5 bind to kernel 1 '_Z17fdtd_step1_kernelPfS_S_S_i'
GPGPU-Sim uArch: Shader 6 bind to kernel 1 '_Z17fdtd_step1_kernelPfS_S_S_i'
GPGPU-Sim uArch: Shader 7 bind to kernel 1 '_Z17fdtd_step1_kernelPfS_S_S_i'
GPGPU-Sim uArch: Shader 8 bind to kernel 1 '_Z17fdtd_step1_kernelPfS_S_S_i'
GPGPU-Sim uArch: Shader 9 bind to kernel 1 '_Z17fdtd_step1_kernelPfS_S_S_i'
GPGPU-Sim uArch: Shader 10 bind to kernel 1 '_Z17fdtd_step1_kernelPfS_S_S_i'
GPGPU-Sim uArch: Shader 11 bind to kernel 1 '_Z17fdtd_step1_kernelPfS_S_S_i'
GPGPU-Sim uArch: Shader 12 bind to kernel 1 '_Z17fdtd_step1_kernelPfS_S_S_i'
GPGPU-Sim uArch: Shader 13 bind to kernel 1 '_Z17fdtd_step1_kernelPfS_S_S_i'
GPGPU-Sim uArch: Shader 14 bind to kernel 1 '_Z17fdtd_step1_kernelPfS_S_S_i'
GPGPU-Sim uArch: Shader 15 bind to kernel 1 '_Z17fdtd_step1_kernelPfS_S_S_i'
GPGPU-Sim uArch: Shader 16 bind to kernel 1 '_Z17fdtd_step1_kernelPfS_S_S_i'
GPGPU-Sim uArch: Shader 17 bind to kernel 1 '_Z17fdtd_step1_kernelPfS_S_S_i'
GPGPU-Sim uArch: Shader 18 bind to kernel 1 '_Z17fdtd_step1_kernelPfS_S_S_i'
GPGPU-Sim uArch: Shader 19 bind to kernel 1 '_Z17fdtd_step1_kernelPfS_S_S_i'
GPGPU-Sim uArch: Shader 20 bind to kernel 1 '_Z17fdtd_step1_kernelPfS_S_S_i'
GPGPU-Sim uArch: Shader 21 bind to kernel 1 '_Z17fdtd_step1_kernelPfS_S_S_i'
GPGPU-Sim uArch: Shader 22 bind to kernel 1 '_Z17fdtd_step1_kernelPfS_S_S_i'
GPGPU-Sim uArch: Shader 23 bind to kernel 1 '_Z17fdtd_step1_kernelPfS_S_S_i'
GPGPU-Sim uArch: Shader 24 bind to kernel 1 '_Z17fdtd_step1_kernelPfS_S_S_i'
GPGPU-Sim uArch: Shader 25 bind to kernel 1 '_Z17fdtd_step1_kernelPfS_S_S_i'
GPGPU-Sim uArch: Shader 26 bind to kernel 1 '_Z17fdtd_step1_kernelPfS_S_S_i'
GPGPU-Sim uArch: Shader 27 bind to kernel 1 '_Z17fdtd_step1_kernelPfS_S_S_i'
GPGPU-Sim uArch: Shader 0 bind to kernel 1 '_Z17fdtd_step1_kernelPfS_S_S_i'
GPGPU-Sim uArch: Shader 1 bind to kernel 1 '_Z17fdtd_step1_kernelPfS_S_S_i'
GPGPU-Sim uArch: Shader 2 bind to kernel 1 '_Z17fdtd_step1_kernelPfS_S_S_i'
GPGPU-Sim uArch: Shader 3 bind to kernel 1 '_Z17fdtd_step1_kernelPfS_S_S_i'
GPGPU-Sim uArch: Shader 4 bind to kernel 1 '_Z17fdtd_step1_kernelPfS_S_S_i'
GPGPU-Sim uArch: Shader 5 bind to kernel 1 '_Z17fdtd_step1_kernelPfS_S_S_i'
GPGPU-Sim uArch: Shader 6 bind to kernel 1 '_Z17fdtd_step1_kernelPfS_S_S_i'
GPGPU-Sim uArch: Shader 7 bind to kernel 1 '_Z17fdtd_step1_kernelPfS_S_S_i'
GPGPU-Sim uArch: Shader 8 bind to kernel 1 '_Z17fdtd_step1_kernelPfS_S_S_i'
GPGPU-Sim uArch: Shader 9 bind to kernel 1 '_Z17fdtd_step1_kernelPfS_S_S_i'
GPGPU-Sim uArch: Shader 10 bind to kernel 1 '_Z17fdtd_step1_kernelPfS_S_S_i'
GPGPU-Sim uArch: Shader 11 bind to kernel 1 '_Z17fdtd_step1_kernelPfS_S_S_i'
GPGPU-Sim uArch: Shader 12 bind to kernel 1 '_Z17fdtd_step1_kernelPfS_S_S_i'
GPGPU-Sim uArch: Shader 13 bind to kernel 1 '_Z17fdtd_step1_kernelPfS_S_S_i'
GPGPU-Sim uArch: Shader 14 bind to kernel 1 '_Z17fdtd_step1_kernelPfS_S_S_i'
GPGPU-Sim uArch: Shader 15 bind to kernel 1 '_Z17fdtd_step1_kernelPfS_S_S_i'
GPGPU-Sim uArch: Shader 16 bind to kernel 1 '_Z17fdtd_step1_kernelPfS_S_S_i'
GPGPU-Sim uArch: Shader 17 bind to kernel 1 '_Z17fdtd_step1_kernelPfS_S_S_i'
GPGPU-Sim uArch: Shader 18 bind to kernel 1 '_Z17fdtd_step1_kernelPfS_S_S_i'
GPGPU-Sim uArch: Shader 19 bind to kernel 1 '_Z17fdtd_step1_kernelPfS_S_S_i'
GPGPU-Sim uArch: Shader 20 bind to kernel 1 '_Z17fdtd_step1_kernelPfS_S_S_i'
GPGPU-Sim uArch: Shader 6 bind to kernel 1 '_Z17fdtd_step1_kernelPfS_S_S_i'
GPGPU-Sim uArch: Shader 7 bind to kernel 1 '_Z17fdtd_step1_kernelPfS_S_S_i'
GPGPU-Sim uArch: Shader 8 bind to kernel 1 '_Z17fdtd_step1_kernelPfS_S_S_i'
GPGPU-Sim uArch: Shader 9 bind to kernel 1 '_Z17fdtd_step1_kernelPfS_S_S_i'
GPGPU-Sim uArch: Shader 10 bind to kernel 1 '_Z17fdtd_step1_kernelPfS_S_S_i'
GPGPU-Sim uArch: Shader 11 bind to kernel 1 '_Z17fdtd_step1_kernelPfS_S_S_i'
GPGPU-Sim uArch: Shader 12 bind to kernel 1 '_Z17fdtd_step1_kernelPfS_S_S_i'
GPGPU-Sim uArch: Shader 13 bind to kernel 1 '_Z17fdtd_step1_kernelPfS_S_S_i'
GPGPU-Sim uArch: Shader 14 bind to kernel 1 '_Z17fdtd_step1_kernelPfS_S_S_i'
GPGPU-Sim uArch: Shader 15 bind to kernel 1 '_Z17fdtd_step1_kernelPfS_S_S_i'
GPGPU-Sim uArch: Shader 16 bind to kernel 1 '_Z17fdtd_step1_kernelPfS_S_S_i'
GPGPU-Sim uArch: Shader 17 bind to kernel 1 '_Z17fdtd_step1_kernelPfS_S_S_i'
GPGPU-Sim uArch: Shader 18 bind to kernel 1 '_Z17fdtd_step1_kernelPfS_S_S_i'
GPGPU-Sim uArch: Shader 19 bind to kernel 1 '_Z17fdtd_step1_kernelPfS_S_S_i'
GPGPU-Sim uArch: Shader 20 bind to kernel 1 '_Z17fdtd_step1_kernelPfS_S_S_i'
GPGPU-Sim uArch: Shader 21 bind to kernel 1 '_Z17fdtd_step1_kernelPfS_S_S_i'
GPGPU-Sim uArch: Shader 22 bind to kernel 1 '_Z17fdtd_step1_kernelPfS_S_S_i'
GPGPU-Sim uArch: Shader 23 bind to kernel 1 '_Z17fdtd_step1_kernelPfS_S_S_i'
GPGPU-Sim uArch: Shader 24 bind to kernel 1 '_Z17fdtd_step1_kernelPfS_S_S_i'
GPGPU-Sim uArch: Shader 25 bind to kernel 1 '_Z17fdtd_step1_kernelPfS_S_S_i'
GPGPU-Sim uArch: Shader 26 bind to kernel 1 '_Z17fdtd_step1_kernelPfS_S_S_i'
GPGPU-Sim uArch: Shader 27 bind to kernel 1 '_Z17fdtd_step1_kernelPfS_S_S_i'
GPGPU-Sim uArch: Shader 0 bind to kernel 1 '_Z17fdtd_step1_kernelPfS_S_S_i'
GPGPU-Sim uArch: Shader 1 bind to kernel 1 '_Z17fdtd_step1_kernelPfS_S_S_i'
GPGPU-Sim uArch: Shader 2 bind to kernel 1 '_Z17fdtd_step1_kernelPfS_S_S_i'
GPGPU-Sim uArch: Shader 3 bind to kernel 1 '_Z17fdtd_step1_kernelPfS_S_S_i'
GPGPU-Sim uArch: Shader 4 bind to kernel 1 '_Z17fdtd_step1_kernelPfS_S_S_i'
GPGPU-Sim uArch: Shader 5 bind to kernel 1 '_Z17fdtd_step1_kernelPfS_S_S_i'
GPGPU-Sim uArch: Shader 6 bind to kernel 1 '_Z17fdtd_step1_kernelPfS_S_S_i'
GPGPU-Sim uArch: Shader 7 bind to kernel 1 '_Z17fdtd_step1_kernelPfS_S_S_i'
GPGPU-Sim uArch: Shader 8 bind to kernel 1 '_Z17fdtd_step1_kernelPfS_S_S_i'
GPGPU-Sim uArch: Shader 9 bind to kernel 1 '_Z17fdtd_step1_kernelPfS_S_S_i'
GPGPU-Sim uArch: Shader 10 bind to kernel 1 '_Z17fdtd_step1_kernelPfS_S_S_i'
GPGPU-Sim uArch: Shader 11 bind to kernel 1 '_Z17fdtd_step1_kernelPfS_S_S_i'
GPGPU-Sim uArch: Shader 12 bind to kernel 1 '_Z17fdtd_step1_kernelPfS_S_S_i'
GPGPU-Sim uArch: Shader 13 bind to kernel 1 '_Z17fdtd_step1_kernelPfS_S_S_i'
GPGPU-Sim uArch: Shader 14 bind to kernel 1 '_Z17fdtd_step1_kernelPfS_S_S_i'
GPGPU-Sim uArch: Shader 15 bind to kernel 1 '_Z17fdtd_step1_kernelPfS_S_S_i'
GPGPU-Sim uArch: Shader 16 bind to kernel 1 '_Z17fdtd_step1_kernelPfS_S_S_i'
GPGPU-Sim uArch: Shader 17 bind to kernel 1 '_Z17fdtd_step1_kernelPfS_S_S_i'
GPGPU-Sim uArch: Shader 18 bind to kernel 1 '_Z17fdtd_step1_kernelPfS_S_S_i'
GPGPU-Sim uArch: Shader 27 bind to kernel 1 '_Z17fdtd_step1_kernelPfS_S_S_i'
GPGPU-Sim uArch: Shader 0 bind to kernel 1 '_Z17fdtd_step1_kernelPfS_S_S_i'
GPGPU-Sim uArch: Shader 1 bind to kernel 1 '_Z17fdtd_step1_kernelPfS_S_S_i'
GPGPU-Sim uArch: Shader 2 bind to kernel 1 '_Z17fdtd_step1_kernelPfS_S_S_i'
GPGPU-Sim uArch: Shader 3 bind to kernel 1 '_Z17fdtd_step1_kernelPfS_S_S_i'
GPGPU-Sim uArch: Shader 4 bind to kernel 1 '_Z17fdtd_step1_kernelPfS_S_S_i'
GPGPU-Sim uArch: Shader 5 bind to kernel 1 '_Z17fdtd_step1_kernelPfS_S_S_i'
GPGPU-Sim uArch: Shader 6 bind to kernel 1 '_Z17fdtd_step1_kernelPfS_S_S_i'
GPGPU-Sim uArch: Shader 7 bind to kernel 1 '_Z17fdtd_step1_kernelPfS_S_S_i'
GPGPU-Sim uArch: Shader 8 bind to kernel 1 '_Z17fdtd_step1_kernelPfS_S_S_i'
GPGPU-Sim uArch: Shader 9 bind to kernel 1 '_Z17fdtd_step1_kernelPfS_S_S_i'
GPGPU-Sim uArch: Shader 10 bind to kernel 1 '_Z17fdtd_step1_kernelPfS_S_S_i'
GPGPU-Sim uArch: Shader 11 bind to kernel 1 '_Z17fdtd_step1_kernelPfS_S_S_i'
GPGPU-Sim uArch: Shader 12 bind to kernel 1 '_Z17fdtd_step1_kernelPfS_S_S_i'
GPGPU-Sim uArch: Shader 13 bind to kernel 1 '_Z17fdtd_step1_kernelPfS_S_S_i'
GPGPU-Sim uArch: Shader 14 bind to kernel 1 '_Z17fdtd_step1_kernelPfS_S_S_i'
GPGPU-Sim uArch: Shader 15 bind to kernel 1 '_Z17fdtd_step1_kernelPfS_S_S_i'
GPGPU-Sim uArch: Shader 16 bind to kernel 1 '_Z17fdtd_step1_kernelPfS_S_S_i'
GPGPU-Sim uArch: Shader 17 bind to kernel 1 '_Z17fdtd_step1_kernelPfS_S_S_i'
GPGPU-Sim uArch: Shader 18 bind to kernel 1 '_Z17fdtd_step1_kernelPfS_S_S_i'
GPGPU-Sim uArch: Shader 19 bind to kernel 1 '_Z17fdtd_step1_kernelPfS_S_S_i'
GPGPU-Sim uArch: Shader 20 bind to kernel 1 '_Z17fdtd_step1_kernelPfS_S_S_i'
GPGPU-Sim uArch: Shader 21 bind to kernel 1 '_Z17fdtd_step1_kernelPfS_S_S_i'
GPGPU-Sim uArch: Shader 22 bind to kernel 1 '_Z17fdtd_step1_kernelPfS_S_S_i'
GPGPU-Sim uArch: Shader 23 bind to kernel 1 '_Z17fdtd_step1_kernelPfS_S_S_i'
GPGPU-Sim uArch: Shader 24 bind to kernel 1 '_Z17fdtd_step1_kernelPfS_S_S_i'
GPGPU-Sim uArch: Shader 27 bind to kernel 1 '_Z17fdtd_step1_kernelPfS_S_S_i'
GPGPU-Sim uArch: Shader 0 bind to kernel 1 '_Z17fdtd_step1_kernelPfS_S_S_i'
GPGPU-Sim uArch: Shader 1 bind to kernel 1 '_Z17fdtd_step1_kernelPfS_S_S_i'
GPGPU-Sim uArch: Shader 2 bind to kernel 1 '_Z17fdtd_step1_kernelPfS_S_S_i'
GPGPU-Sim uArch: Shader 3 bind to kernel 1 '_Z17fdtd_step1_kernelPfS_S_S_i'
GPGPU-Sim uArch: Shader 4 bind to kernel 1 '_Z17fdtd_step1_kernelPfS_S_S_i'
GPGPU-Sim uArch: Shader 5 bind to kernel 1 '_Z17fdtd_step1_kernelPfS_S_S_i'
GPGPU-Sim uArch: Shader 6 bind to kernel 1 '_Z17fdtd_step1_kernelPfS_S_S_i'
GPGPU-Sim uArch: Shader 7 bind to kernel 1 '_Z17fdtd_step1_kernelPfS_S_S_i'
GPGPU-Sim uArch: Shader 8 bind to kernel 1 '_Z17fdtd_step1_kernelPfS_S_S_i'
GPGPU-Sim uArch: Shader 9 bind to kernel 1 '_Z17fdtd_step1_kernelPfS_S_S_i'
GPGPU-Sim uArch: Shader 10 bind to kernel 1 '_Z17fdtd_step1_kernelPfS_S_S_i'
GPGPU-Sim uArch: Shader 11 bind to kernel 1 '_Z17fdtd_step1_kernelPfS_S_S_i'
GPGPU-Sim uArch: Shader 12 bind to kernel 1 '_Z17fdtd_step1_kernelPfS_S_S_i'
GPGPU-Sim uArch: Shader 13 bind to kernel 1 '_Z17fdtd_step1_kernelPfS_S_S_i'
GPGPU-Sim uArch: Shader 14 bind to kernel 1 '_Z17fdtd_step1_kernelPfS_S_S_i'
GPGPU-Sim uArch: Shader 15 bind to kernel 1 '_Z17fdtd_step1_kernelPfS_S_S_i'
GPGPU-Sim uArch: Shader 16 bind to kernel 1 '_Z17fdtd_step1_kernelPfS_S_S_i'
GPGPU-Sim uArch: Shader 17 bind to kernel 1 '_Z17fdtd_step1_kernelPfS_S_S_i'
GPGPU-Sim uArch: Shader 18 bind to kernel 1 '_Z17fdtd_step1_kernelPfS_S_S_i'
GPGPU-Sim uArch: Shader 19 bind to kernel 1 '_Z17fdtd_step1_kernelPfS_S_S_i'
GPGPU-Sim uArch: Shader 27 bind to kernel 1 '_Z17fdtd_step1_kernelPfS_S_S_i'
GPGPU-Sim uArch: Shader 0 bind to kernel 1 '_Z17fdtd_step1_kernelPfS_S_S_i'
GPGPU-Sim uArch: Shader 1 bind to kernel 1 '_Z17fdtd_step1_kernelPfS_S_S_i'
GPGPU-Sim uArch: Shader 2 bind to kernel 1 '_Z17fdtd_step1_kernelPfS_S_S_i'
GPGPU-Sim uArch: Shader 3 bind to kernel 1 '_Z17fdtd_step1_kernelPfS_S_S_i'
GPGPU-Sim uArch: Shader 4 bind to kernel 1 '_Z17fdtd_step1_kernelPfS_S_S_i'
GPGPU-Sim uArch: Shader 5 bind to kernel 1 '_Z17fdtd_step1_kernelPfS_S_S_i'
GPGPU-Sim uArch: Shader 6 bind to kernel 1 '_Z17fdtd_step1_kernelPfS_S_S_i'
GPGPU-Sim uArch: Shader 7 bind to kernel 1 '_Z17fdtd_step1_kernelPfS_S_S_i'
GPGPU-Sim uArch: Shader 8 bind to kernel 1 '_Z17fdtd_step1_kernelPfS_S_S_i'
GPGPU-Sim uArch: Shader 9 bind to kernel 1 '_Z17fdtd_step1_kernelPfS_S_S_i'
GPGPU-Sim uArch: Shader 10 bind to kernel 1 '_Z17fdtd_step1_kernelPfS_S_S_i'
GPGPU-Sim uArch: Shader 11 bind to kernel 1 '_Z17fdtd_step1_kernelPfS_S_S_i'
GPGPU-Sim uArch: Shader 12 bind to kernel 1 '_Z17fdtd_step1_kernelPfS_S_S_i'
GPGPU-Sim uArch: Shader 13 bind to kernel 1 '_Z17fdtd_step1_kernelPfS_S_S_i'
GPGPU-Sim uArch: Shader 14 bind to kernel 1 '_Z17fdtd_step1_kernelPfS_S_S_i'
GPGPU-Sim uArch: Shader 15 bind to kernel 1 '_Z17fdtd_step1_kernelPfS_S_S_i'
GPGPU-Sim uArch: Shader 16 bind to kernel 1 '_Z17fdtd_step1_kernelPfS_S_S_i'
GPGPU-Sim uArch: Shader 17 bind to kernel 1 '_Z17fdtd_step1_kernelPfS_S_S_i'
GPGPU-Sim uArch: Shader 18 bind to kernel 1 '_Z17fdtd_step1_kernelPfS_S_S_i'
GPGPU-Sim uArch: Shader 19 bind to kernel 1 '_Z17fdtd_step1_kernelPfS_S_S_i'
GPGPU-Sim uArch: Shader 20 bind to kernel 1 '_Z17fdtd_step1_kernelPfS_S_S_i'
GPGPU-Sim uArch: Shader 21 bind to kernel 1 '_Z17fdtd_step1_kernelPfS_S_S_i'
GPGPU-Sim uArch: Shader 22 bind to kernel 1 '_Z17fdtd_step1_kernelPfS_S_S_i'
GPGPU-Sim uArch: Shader 23 bind to kernel 1 '_Z17fdtd_step1_kernelPfS_S_S_i'
GPGPU-Sim uArch: Shader 27 bind to kernel 1 '_Z17fdtd_step1_kernelPfS_S_S_i'
GPGPU-Sim uArch: Shader 0 bind to kernel 1 '_Z17fdtd_step1_kernelPfS_S_S_i'
GPGPU-Sim uArch: Shader 1 bind to kernel 1 '_Z17fdtd_step1_kernelPfS_S_S_i'
GPGPU-Sim uArch: Shader 2 bind to kernel 1 '_Z17fdtd_step1_kernelPfS_S_S_i'
GPGPU-Sim uArch: Shader 3 bind to kernel 1 '_Z17fdtd_step1_kernelPfS_S_S_i'
GPGPU-Sim uArch: Shader 4 bind to kernel 1 '_Z17fdtd_step1_kernelPfS_S_S_i'
GPGPU-Sim uArch: Shader 5 bind to kernel 1 '_Z17fdtd_step1_kernelPfS_S_S_i'
GPGPU-Sim uArch: Shader 6 bind to kernel 1 '_Z17fdtd_step1_kernelPfS_S_S_i'
GPGPU-Sim uArch: Shader 7 bind to kernel 1 '_Z17fdtd_step1_kernelPfS_S_S_i'
GPGPU-Sim uArch: Shader 8 bind to kernel 1 '_Z17fdtd_step1_kernelPfS_S_S_i'
GPGPU-Sim uArch: Shader 9 bind to kernel 1 '_Z17fdtd_step1_kernelPfS_S_S_i'
GPGPU-Sim uArch: Shader 10 bind to kernel 1 '_Z17fdtd_step1_kernelPfS_S_S_i'
GPGPU-Sim uArch: Shader 11 bind to kernel 1 '_Z17fdtd_step1_kernelPfS_S_S_i'
GPGPU-Sim uArch: Shader 12 bind to kernel 1 '_Z17fdtd_step1_kernelPfS_S_S_i'
GPGPU-Sim uArch: Shader 13 bind to kernel 1 '_Z17fdtd_step1_kernelPfS_S_S_i'
GPGPU-Sim uArch: Shader 14 bind to kernel 1 '_Z17fdtd_step1_kernelPfS_S_S_i'
GPGPU-Sim uArch: Shader 15 bind to kernel 1 '_Z17fdtd_step1_kernelPfS_S_S_i'
GPGPU-Sim uArch: Shader 16 bind to kernel 1 '_Z17fdtd_step1_kernelPfS_S_S_i'
GPGPU-Sim uArch: Shader 17 bind to kernel 1 '_Z17fdtd_step1_kernelPfS_S_S_i'
GPGPU-Sim uArch: Shader 18 bind to kernel 1 '_Z17fdtd_step1_kernelPfS_S_S_i'
GPGPU-Sim uArch: Shader 26 bind to kernel 1 '_Z17fdtd_step1_kernelPfS_S_S_i'
GPGPU-Sim uArch: Shader 27 bind to kernel 1 '_Z17fdtd_step1_kernelPfS_S_S_i'
GPGPU-Sim uArch: Shader 0 bind to kernel 1 '_Z17fdtd_step1_kernelPfS_S_S_i'
GPGPU-Sim uArch: Shader 2 bind to kernel 1 '_Z17fdtd_step1_kernelPfS_S_S_i'
GPGPU-Sim uArch: Shader 3 bind to kernel 1 '_Z17fdtd_step1_kernelPfS_S_S_i'
GPGPU-Sim uArch: Shader 4 bind to kernel 1 '_Z17fdtd_step1_kernelPfS_S_S_i'
GPGPU-Sim uArch: Shader 5 bind to kernel 1 '_Z17fdtd_step1_kernelPfS_S_S_i'
GPGPU-Sim uArch: Shader 6 bind to kernel 1 '_Z17fdtd_step1_kernelPfS_S_S_i'
GPGPU-Sim uArch: Shader 7 bind to kernel 1 '_Z17fdtd_step1_kernelPfS_S_S_i'
GPGPU-Sim uArch: Shader 8 bind to kernel 1 '_Z17fdtd_step1_kernelPfS_S_S_i'
GPGPU-Sim uArch: Shader 9 bind to kernel 1 '_Z17fdtd_step1_kernelPfS_S_S_i'
GPGPU-Sim uArch: Shader 11 bind to kernel 1 '_Z17fdtd_step1_kernelPfS_S_S_i'
GPGPU-Sim uArch: Shader 12 bind to kernel 1 '_Z17fdtd_step1_kernelPfS_S_S_i'
GPGPU-Sim uArch: Shader 13 bind to kernel 1 '_Z17fdtd_step1_kernelPfS_S_S_i'
GPGPU-Sim uArch: Shader 14 bind to kernel 1 '_Z17fdtd_step1_kernelPfS_S_S_i'
GPGPU-Sim uArch: Shader 15 bind to kernel 1 '_Z17fdtd_step1_kernelPfS_S_S_i'
GPGPU-Sim uArch: Shader 16 bind to kernel 1 '_Z17fdtd_step1_kernelPfS_S_S_i'
GPGPU-Sim uArch: Shader 17 bind to kernel 1 '_Z17fdtd_step1_kernelPfS_S_S_i'
GPGPU-Sim uArch: Shader 18 bind to kernel 1 '_Z17fdtd_step1_kernelPfS_S_S_i'
GPGPU-Sim uArch: Shader 2 bind to kernel 1 '_Z17fdtd_step1_kernelPfS_S_S_i'
GPGPU-Sim uArch: Shader 3 bind to kernel 1 '_Z17fdtd_step1_kernelPfS_S_S_i'
GPGPU-Sim uArch: Shader 4 bind to kernel 1 '_Z17fdtd_step1_kernelPfS_S_S_i'
GPGPU-Sim uArch: Shader 5 bind to kernel 1 '_Z17fdtd_step1_kernelPfS_S_S_i'
GPGPU-Sim uArch: Shader 6 bind to kernel 1 '_Z17fdtd_step1_kernelPfS_S_S_i'
GPGPU-Sim uArch: Shader 7 bind to kernel 1 '_Z17fdtd_step1_kernelPfS_S_S_i'
GPGPU-Sim uArch: Shader 8 bind to kernel 1 '_Z17fdtd_step1_kernelPfS_S_S_i'
GPGPU-Sim uArch: Shader 26 bind to kernel 1 '_Z17fdtd_step1_kernelPfS_S_S_i'
GPGPU-Sim uArch: Shader 27 bind to kernel 1 '_Z17fdtd_step1_kernelPfS_S_S_i'
GPGPU-Sim uArch: Shader 0 bind to kernel 1 '_Z17fdtd_step1_kernelPfS_S_S_i'
GPGPU-Sim uArch: Shader 2 bind to kernel 1 '_Z17fdtd_step1_kernelPfS_S_S_i'
GPGPU-Sim uArch: Shader 3 bind to kernel 1 '_Z17fdtd_step1_kernelPfS_S_S_i'
GPGPU-Sim uArch: Shader 4 bind to kernel 1 '_Z17fdtd_step1_kernelPfS_S_S_i'
GPGPU-Sim uArch: Shader 5 bind to kernel 1 '_Z17fdtd_step1_kernelPfS_S_S_i'
GPGPU-Sim uArch: Shader 6 bind to kernel 1 '_Z17fdtd_step1_kernelPfS_S_S_i'
GPGPU-Sim uArch: Shader 7 bind to kernel 1 '_Z17fdtd_step1_kernelPfS_S_S_i'
GPGPU-Sim uArch: Shader 8 bind to kernel 1 '_Z17fdtd_step1_kernelPfS_S_S_i'
GPGPU-Sim uArch: Shader 9 bind to kernel 1 '_Z17fdtd_step1_kernelPfS_S_S_i'
GPGPU-Sim uArch: Shader 17 bind to kernel 1 '_Z17fdtd_step1_kernelPfS_S_S_i'
GPGPU-Sim uArch: Shader 20 bind to kernel 1 '_Z17fdtd_step1_kernelPfS_S_S_i'
GPGPU-Sim uArch: Shader 21 bind to kernel 1 '_Z17fdtd_step1_kernelPfS_S_S_i'
GPGPU-Sim uArch: Shader 26 bind to kernel 1 '_Z17fdtd_step1_kernelPfS_S_S_i'
GPGPU-Sim uArch: Shader 27 bind to kernel 1 '_Z17fdtd_step1_kernelPfS_S_S_i'
GPGPU-Sim uArch: Shader 0 bind to kernel 1 '_Z17fdtd_step1_kernelPfS_S_S_i'
GPGPU-Sim uArch: Shader 17 bind to kernel 1 '_Z17fdtd_step1_kernelPfS_S_S_i'
GPGPU-Sim uArch: Shader 20 bind to kernel 1 '_Z17fdtd_step1_kernelPfS_S_S_i'
GPGPU-Sim uArch: Shader 21 bind to kernel 1 '_Z17fdtd_step1_kernelPfS_S_S_i'
GPGPU-Sim uArch: Shader 26 bind to kernel 1 '_Z17fdtd_step1_kernelPfS_S_S_i'
GPGPU-Sim uArch: Shader 27 bind to kernel 1 '_Z17fdtd_step1_kernelPfS_S_S_i'
GPGPU-Sim uArch: Shader 2 bind to kernel 1 '_Z17fdtd_step1_kernelPfS_S_S_i'
GPGPU-Sim uArch: Shader 3 bind to kernel 1 '_Z17fdtd_step1_kernelPfS_S_S_i'
GPGPU-Sim uArch: Shader 4 bind to kernel 1 '_Z17fdtd_step1_kernelPfS_S_S_i'
GPGPU-Sim uArch: Shader 5 bind to kernel 1 '_Z17fdtd_step1_kernelPfS_S_S_i'
GPGPU-Sim uArch: Shader 6 bind to kernel 1 '_Z17fdtd_step1_kernelPfS_S_S_i'
GPGPU-Sim uArch: Shader 7 bind to kernel 1 '_Z17fdtd_step1_kernelPfS_S_S_i'
GPGPU-Sim uArch: Shader 8 bind to kernel 1 '_Z17fdtd_step1_kernelPfS_S_S_i'
GPGPU-Sim uArch: Shader 9 bind to kernel 1 '_Z17fdtd_step1_kernelPfS_S_S_i'
GPGPU-Sim uArch: Shader 25 bind to kernel 1 '_Z17fdtd_step1_kernelPfS_S_S_i'
GPGPU-Sim uArch: Shader 26 bind to kernel 1 '_Z17fdtd_step1_kernelPfS_S_S_i'
GPGPU-Sim uArch: Shader 27 bind to kernel 1 '_Z17fdtd_step1_kernelPfS_S_S_i'
GPGPU-Sim uArch: Shader 0 bind to kernel 1 '_Z17fdtd_step1_kernelPfS_S_S_i'
GPGPU-Sim uArch: Shader 1 bind to kernel 1 '_Z17fdtd_step1_kernelPfS_S_S_i'
GPGPU-Sim uArch: Shader 2 bind to kernel 1 '_Z17fdtd_step1_kernelPfS_S_S_i'
GPGPU-Sim uArch: Shader 3 bind to kernel 1 '_Z17fdtd_step1_kernelPfS_S_S_i'
GPGPU-Sim uArch: Shader 4 bind to kernel 1 '_Z17fdtd_step1_kernelPfS_S_S_i'
GPGPU-Sim uArch: Shader 5 bind to kernel 1 '_Z17fdtd_step1_kernelPfS_S_S_i'
GPGPU-Sim uArch: Shader 6 bind to kernel 1 '_Z17fdtd_step1_kernelPfS_S_S_i'
GPGPU-Sim uArch: Shader 7 bind to kernel 1 '_Z17fdtd_step1_kernelPfS_S_S_i'
GPGPU-Sim uArch: Shader 8 bind to kernel 1 '_Z17fdtd_step1_kernelPfS_S_S_i'
GPGPU-Sim uArch: Shader 9 bind to kernel 1 '_Z17fdtd_step1_kernelPfS_S_S_i'
GPGPU-Sim uArch: Shader 10 bind to kernel 1 '_Z17fdtd_step1_kernelPfS_S_S_i'
GPGPU-Sim uArch: Shader 11 bind to kernel 1 '_Z17fdtd_step1_kernelPfS_S_S_i'
GPGPU-Sim uArch: Shader 12 bind to kernel 1 '_Z17fdtd_step1_kernelPfS_S_S_i'
GPGPU-Sim uArch: Shader 13 bind to kernel 1 '_Z17fdtd_step1_kernelPfS_S_S_i'
GPGPU-Sim uArch: Shader 14 bind to kernel 1 '_Z17fdtd_step1_kernelPfS_S_S_i'
GPGPU-Sim uArch: Shader 16 bind to kernel 1 '_Z17fdtd_step1_kernelPfS_S_S_i'
GPGPU-Sim uArch: Shader 17 bind to kernel 1 '_Z17fdtd_step1_kernelPfS_S_S_i'
GPGPU-Sim uArch: Shader 20 bind to kernel 1 '_Z17fdtd_step1_kernelPfS_S_S_i'
GPGPU-Sim uArch: Shader 21 bind to kernel 1 '_Z17fdtd_step1_kernelPfS_S_S_i'
GPGPU-Sim uArch: Shader 25 bind to kernel 1 '_Z17fdtd_step1_kernelPfS_S_S_i'
GPGPU-Sim uArch: Shader 26 bind to kernel 1 '_Z17fdtd_step1_kernelPfS_S_S_i'
GPGPU-Sim uArch: Shader 27 bind to kernel 1 '_Z17fdtd_step1_kernelPfS_S_S_i'
GPGPU-Sim uArch: Shader 0 bind to kernel 1 '_Z17fdtd_step1_kernelPfS_S_S_i'
GPGPU-Sim uArch: Shader 1 bind to kernel 1 '_Z17fdtd_step1_kernelPfS_S_S_i'
GPGPU-Sim uArch: Shader 20 bind to kernel 1 '_Z17fdtd_step1_kernelPfS_S_S_i'
GPGPU-Sim uArch: Shader 21 bind to kernel 1 '_Z17fdtd_step1_kernelPfS_S_S_i'
GPGPU-Sim uArch: Shader 23 bind to kernel 1 '_Z17fdtd_step1_kernelPfS_S_S_i'
GPGPU-Sim uArch: Shader 25 bind to kernel 1 '_Z17fdtd_step1_kernelPfS_S_S_i'
GPGPU-Sim uArch: Shader 26 bind to kernel 1 '_Z17fdtd_step1_kernelPfS_S_S_i'
GPGPU-Sim uArch: Shader 27 bind to kernel 1 '_Z17fdtd_step1_kernelPfS_S_S_i'
GPGPU-Sim uArch: Shader 0 bind to kernel 1 '_Z17fdtd_step1_kernelPfS_S_S_i'
GPGPU-Sim uArch: Shader 1 bind to kernel 1 '_Z17fdtd_step1_kernelPfS_S_S_i'
GPGPU-Sim uArch: Shader 2 bind to kernel 1 '_Z17fdtd_step1_kernelPfS_S_S_i'
GPGPU-Sim uArch: Shader 3 bind to kernel 1 '_Z17fdtd_step1_kernelPfS_S_S_i'
GPGPU-Sim uArch: Shader 4 bind to kernel 1 '_Z17fdtd_step1_kernelPfS_S_S_i'
GPGPU-Sim uArch: Shader 7 bind to kernel 1 '_Z17fdtd_step1_kernelPfS_S_S_i'
GPGPU-Sim uArch: Shader 12 bind to kernel 1 '_Z17fdtd_step1_kernelPfS_S_S_i'
GPGPU-Sim uArch: Shader 15 bind to kernel 1 '_Z17fdtd_step1_kernelPfS_S_S_i'
GPGPU-Sim uArch: Shader 16 bind to kernel 1 '_Z17fdtd_step1_kernelPfS_S_S_i'
Destroy streams for kernel 1: size 0
GPGPU-Sim: synchronize waiting for inactive GPU simulation
GPGPU-Sim API: Stream Manager State
kernel_name = _Z17fdtd_step1_kernelPfS_S_S_i 
kernel_launch_uid = 1 
gpu_sim_cycle = 1939607
gpu_sim_insn = 49297200
gpu_ipc =      25.4161
gpu_tot_sim_cycle = 2161757
gpu_tot_sim_insn = 49297200
gpu_tot_ipc =      22.8042
gpu_tot_issued_cta = 5700
max_total_param_size = 0
gpu_stall_dramfull = 284314
gpu_stall_icnt2sh    = 406200
partiton_reqs_in_parallel = 15232542
partiton_reqs_in_parallel_total    = 0
partiton_level_parallism =       7.8534
partiton_level_parallism_total  =       7.0464
partiton_reqs_in_parallel_util = 15232542
partiton_reqs_in_parallel_util_total    = 0
gpu_sim_cycle_parition_util = 1917664
gpu_tot_sim_cycle_parition_util    = 0
partiton_level_parallism_util =       7.9433
partiton_level_parallism_util_total  =       7.9433
partiton_replys_in_parallel = 271199
partiton_replys_in_parallel_total    = 0
L2_BW  =      13.2529 GB/Sec
L2_BW_total  =      11.8909 GB/Sec
gpu_total_sim_rate=2480

========= Core cache stats =========
L1I_cache:
	L1I_total_cache_accesses = 866248
	L1I_total_cache_misses = 1981
	L1I_total_cache_miss_rate = 0.0023
	L1I_total_cache_pending_hits = 0
	L1I_total_cache_reservation_fails = 6846
L1D_cache:
	L1D_cache_core[0]: Access = 0, Miss = 0, Miss_rate = -nan, Pending_hits = 0, Reservation_fails = 0
	L1D_cache_core[1]: Access = 0, Miss = 0, Miss_rate = -nan, Pending_hits = 0, Reservation_fails = 0
	L1D_cache_core[2]: Access = 0, Miss = 0, Miss_rate = -nan, Pending_hits = 0, Reservation_fails = 0
	L1D_cache_core[3]: Access = 0, Miss = 0, Miss_rate = -nan, Pending_hits = 0, Reservation_fails = 0
	L1D_cache_core[4]: Access = 0, Miss = 0, Miss_rate = -nan, Pending_hits = 0, Reservation_fails = 0
	L1D_cache_core[5]: Access = 0, Miss = 0, Miss_rate = -nan, Pending_hits = 0, Reservation_fails = 0
	L1D_cache_core[6]: Access = 0, Miss = 0, Miss_rate = -nan, Pending_hits = 0, Reservation_fails = 0
	L1D_cache_core[7]: Access = 0, Miss = 0, Miss_rate = -nan, Pending_hits = 0, Reservation_fails = 0
	L1D_cache_core[8]: Access = 0, Miss = 0, Miss_rate = -nan, Pending_hits = 0, Reservation_fails = 0
	L1D_cache_core[9]: Access = 0, Miss = 0, Miss_rate = -nan, Pending_hits = 0, Reservation_fails = 0
	L1D_cache_core[10]: Access = 0, Miss = 0, Miss_rate = -nan, Pending_hits = 0, Reservation_fails = 0
	L1D_cache_core[11]: Access = 0, Miss = 0, Miss_rate = -nan, Pending_hits = 0, Reservation_fails = 0
	L1D_cache_core[12]: Access = 0, Miss = 0, Miss_rate = -nan, Pending_hits = 0, Reservation_fails = 0
	L1D_cache_core[13]: Access = 0, Miss = 0, Miss_rate = -nan, Pending_hits = 0, Reservation_fails = 0
	L1D_cache_core[14]: Access = 0, Miss = 0, Miss_rate = -nan, Pending_hits = 0, Reservation_fails = 0
	L1D_cache_core[15]: Access = 0, Miss = 0, Miss_rate = -nan, Pending_hits = 0, Reservation_fails = 0
	L1D_cache_core[16]: Access = 0, Miss = 0, Miss_rate = -nan, Pending_hits = 0, Reservation_fails = 0
	L1D_cache_core[17]: Access = 0, Miss = 0, Miss_rate = -nan, Pending_hits = 0, Reservation_fails = 0
	L1D_cache_core[18]: Access = 0, Miss = 0, Miss_rate = -nan, Pending_hits = 0, Reservation_fails = 0
	L1D_cache_core[19]: Access = 0, Miss = 0, Miss_rate = -nan, Pending_hits = 0, Reservation_fails = 0
	L1D_cache_core[20]: Access = 0, Miss = 0, Miss_rate = -nan, Pending_hits = 0, Reservation_fails = 0
	L1D_cache_core[21]: Access = 0, Miss = 0, Miss_rate = -nan, Pending_hits = 0, Reservation_fails = 0
	L1D_cache_core[22]: Access = 0, Miss = 0, Miss_rate = -nan, Pending_hits = 0, Reservation_fails = 0
	L1D_cache_core[23]: Access = 0, Miss = 0, Miss_rate = -nan, Pending_hits = 0, Reservation_fails = 0
	L1D_cache_core[24]: Access = 0, Miss = 0, Miss_rate = -nan, Pending_hits = 0, Reservation_fails = 0
	L1D_cache_core[25]: Access = 0, Miss = 0, Miss_rate = -nan, Pending_hits = 0, Reservation_fails = 0
	L1D_cache_core[26]: Access = 0, Miss = 0, Miss_rate = -nan, Pending_hits = 0, Reservation_fails = 0
	L1D_cache_core[27]: Access = 0, Miss = 0, Miss_rate = -nan, Pending_hits = 0, Reservation_fails = 0
	L1D_total_cache_accesses = 0
	L1D_total_cache_misses = 0
	L1D_total_cache_pending_hits = 0
	L1D_total_cache_reservation_fails = 0
	L1D_cache_data_port_util = 0.000
	L1D_cache_fill_port_util = 0.000
L1C_cache:
	L1C_total_cache_accesses = 182400
	L1C_total_cache_misses = 1792
	L1C_total_cache_miss_rate = 0.0098
	L1C_total_cache_pending_hits = 0
	L1C_total_cache_reservation_fails = 5054
L1T_cache:
	L1T_total_cache_accesses = 0
	L1T_total_cache_misses = 0
	L1T_total_cache_pending_hits = 0
	L1T_total_cache_reservation_fails = 0

Total_core_cache_stats:
	Total_core_cache_stats_breakdown[GLOBAL_ACC_R][HIT] = 0
	Total_core_cache_stats_breakdown[GLOBAL_ACC_R][HIT_RESERVED] = 0
	Total_core_cache_stats_breakdown[GLOBAL_ACC_R][MISS] = 0
	Total_core_cache_stats_breakdown[GLOBAL_ACC_R][RESERVATION_FAIL] = 0
	Total_core_cache_stats_breakdown[LOCAL_ACC_R][HIT] = 0
	Total_core_cache_stats_breakdown[LOCAL_ACC_R][HIT_RESERVED] = 0
	Total_core_cache_stats_breakdown[LOCAL_ACC_R][MISS] = 0
	Total_core_cache_stats_breakdown[LOCAL_ACC_R][RESERVATION_FAIL] = 0
	Total_core_cache_stats_breakdown[CONST_ACC_R][HIT] = 180608
	Total_core_cache_stats_breakdown[CONST_ACC_R][HIT_RESERVED] = 0
	Total_core_cache_stats_breakdown[CONST_ACC_R][MISS] = 1792
	Total_core_cache_stats_breakdown[CONST_ACC_R][RESERVATION_FAIL] = 5054
	Total_core_cache_stats_breakdown[TEXTURE_ACC_R][HIT] = 0
	Total_core_cache_stats_breakdown[TEXTURE_ACC_R][HIT_RESERVED] = 0
	Total_core_cache_stats_breakdown[TEXTURE_ACC_R][MISS] = 0
	Total_core_cache_stats_breakdown[TEXTURE_ACC_R][RESERVATION_FAIL] = 0
	Total_core_cache_stats_breakdown[GLOBAL_ACC_W][HIT] = 0
	Total_core_cache_stats_breakdown[GLOBAL_ACC_W][HIT_RESERVED] = 0
	Total_core_cache_stats_breakdown[GLOBAL_ACC_W][MISS] = 0
	Total_core_cache_stats_breakdown[GLOBAL_ACC_W][RESERVATION_FAIL] = 0
	Total_core_cache_stats_breakdown[LOCAL_ACC_W][HIT] = 0
	Total_core_cache_stats_breakdown[LOCAL_ACC_W][HIT_RESERVED] = 0
	Total_core_cache_stats_breakdown[LOCAL_ACC_W][MISS] = 0
	Total_core_cache_stats_breakdown[LOCAL_ACC_W][RESERVATION_FAIL] = 0
	Total_core_cache_stats_breakdown[L1_WRBK_ACC][HIT] = 0
	Total_core_cache_stats_breakdown[L1_WRBK_ACC][HIT_RESERVED] = 0
	Total_core_cache_stats_breakdown[L1_WRBK_ACC][MISS] = 0
	Total_core_cache_stats_breakdown[L1_WRBK_ACC][RESERVATION_FAIL] = 0
	Total_core_cache_stats_breakdown[L2_WRBK_ACC][HIT] = 0
	Total_core_cache_stats_breakdown[L2_WRBK_ACC][HIT_RESERVED] = 0
	Total_core_cache_stats_breakdown[L2_WRBK_ACC][MISS] = 0
	Total_core_cache_stats_breakdown[L2_WRBK_ACC][RESERVATION_FAIL] = 0
	Total_core_cache_stats_breakdown[INST_ACC_R][HIT] = 864267
	Total_core_cache_stats_breakdown[INST_ACC_R][HIT_RESERVED] = 0
	Total_core_cache_stats_breakdown[INST_ACC_R][MISS] = 1981
	Total_core_cache_stats_breakdown[INST_ACC_R][RESERVATION_FAIL] = 6846
	Total_core_cache_stats_breakdown[L1_WR_ALLOC_R][HIT] = 0
	Total_core_cache_stats_breakdown[L1_WR_ALLOC_R][HIT_RESERVED] = 0
	Total_core_cache_stats_breakdown[L1_WR_ALLOC_R][MISS] = 0
	Total_core_cache_stats_breakdown[L1_WR_ALLOC_R][RESERVATION_FAIL] = 0
	Total_core_cache_stats_breakdown[L2_WR_ALLOC_R][HIT] = 0
	Total_core_cache_stats_breakdown[L2_WR_ALLOC_R][HIT_RESERVED] = 0
	Total_core_cache_stats_breakdown[L2_WR_ALLOC_R][MISS] = 0
	Total_core_cache_stats_breakdown[L2_WR_ALLOC_R][RESERVATION_FAIL] = 0
	Total_core_cache_stats_breakdown[CONST_ACC_R][TOTAL_ACCESS] = 182400
	Total_core_cache_stats_breakdown[INST_ACC_R][TOTAL_ACCESS] = 866248
Shader 0 warp_id issue ditsribution:
warp_id:
0, 1, 2, 3, 4, 5, 6, 7, 8, 9, 10, 11, 12, 13, 14, 15, 16, 17, 18, 19, 20, 21, 22, 23, 24, 25, 26, 27, 28, 29, 30, 31, 32, 33, 34, 35, 36, 37, 38, 39, 40, 41, 42, 43, 44, 45, 46, 47, 48, 49, 50, 51, 52, 53, 54, 55, 56, 57, 58, 59, 60, 61, 62, 63, 
distro:
1127, 1144, 1135, 1143, 1135, 1142, 1135, 1143, 1135, 1143, 1135, 1143, 1135, 1137, 1135, 1120, 1135, 1119, 1135, 1121, 1136, 1126, 1136, 1127, 1136, 1144, 1136, 1136, 1139, 1139, 1138, 1133, 1143, 1140, 1143, 1128, 1143, 1126, 1144, 1125, 1100, 1096, 1100, 1091, 1099, 1089, 1094, 1078, 1098, 1082, 1098, 1080, 1083, 1077, 1083, 1079, 1056, 1036, 1056, 1036, 1055, 1039, 1056, 1043, 
gpgpu_n_tot_thrd_icount = 52521472
gpgpu_n_tot_w_icount = 1641296
gpgpu_n_stall_shd_mem = 402787
gpgpu_n_mem_read_local = 0
gpgpu_n_mem_write_local = 0
gpgpu_n_mem_read_global = 203287
gpgpu_n_mem_write_global = 67800
gpgpu_n_mem_texture = 0
gpgpu_n_mem_const = 28
gpgpu_n_load_insn  = 4317600
gpgpu_n_store_insn = 1440000
gpgpu_n_shmem_insn = 0
gpgpu_n_tex_insn = 0
gpgpu_n_const_mem_insn = 0
gpgpu_n_param_mem_insn = 5836800
gpgpu_n_shmem_bkconflict = 0
gpgpu_n_cache_bkconflict = 0
gpgpu_n_intrawarp_mshr_merge = 0
gpgpu_n_cmem_portconflict = 5054
gpgpu_stall_shd_mem[c_mem][bk_conf] = 5054
gpgpu_stall_shd_mem[c_mem][mshr_rc] = 0
gpgpu_stall_shd_mem[c_mem][icnt_rc] = 0
gpgpu_stall_shd_mem[c_mem][data_port_stall] = 0
gpgpu_stall_shd_mem[t_mem][mshr_rc] = 0
gpgpu_stall_shd_mem[t_mem][icnt_rc] = 0
gpgpu_stall_shd_mem[t_mem][data_port_stall] = 0
gpgpu_stall_shd_mem[s_mem][bk_conf] = 0
gpgpu_stall_shd_mem[gl_mem][bk_conf] = 0
gpgpu_stall_shd_mem[gl_mem][coal_stall] = 187139
gpgpu_stall_shd_mem[gl_mem][data_port_stall] = 0
gpgpu_stall_shd_mem[g_mem_ld][mshr_rc] = 0
gpgpu_stall_shd_mem[g_mem_ld][icnt_rc] = 210594
gpgpu_stall_shd_mem[g_mem_ld][wb_icnt_rc] = 0
gpgpu_stall_shd_mem[g_mem_ld][wb_rsrv_fail] = 0
gpgpu_stall_shd_mem[g_mem_st][mshr_rc] = 0
gpgpu_stall_shd_mem[g_mem_st][icnt_rc] = 0
gpgpu_stall_shd_mem[g_mem_st][wb_icnt_rc] = 0
gpgpu_stall_shd_mem[g_mem_st][wb_rsrv_fail] = 0
gpgpu_stall_shd_mem[l_mem_ld][mshr_rc] = 0
gpgpu_stall_shd_mem[l_mem_ld][icnt_rc] = 0
gpgpu_stall_shd_mem[l_mem_ld][wb_icnt_rc] = 0
gpgpu_stall_shd_mem[l_mem_ld][wb_rsrv_fail] = 0
gpgpu_stall_shd_mem[l_mem_st][mshr_rc] = 0
gpgpu_stall_shd_mem[l_mem_st][icnt_rc] = 0
gpgpu_stall_shd_mem[l_mem_ld][wb_icnt_rc] = 0
gpgpu_stall_shd_mem[l_mem_ld][wb_rsrv_fail] = 0
gpu_reg_bank_conflict_stalls = 0
Warp Occupancy Distribution:
Stall:206451	W0_Idle:8399772	W0_Scoreboard:98715054	W1:0	W2:0	W3:0	W4:0	W5:0	W6:0	W7:0	W8:0	W9:0	W10:0	W11:0	W12:0	W13:0	W14:0	W15:0	W16:21592	W17:0	W18:0	W19:0	W20:0	W21:0	W22:0	W23:0	W24:0	W25:0	W26:0	W27:0	W28:0	W29:0	W30:0	W31:0	W32:1619704
traffic_breakdown_coretomem[CONST_ACC_R] = 224 {8:28,}
traffic_breakdown_coretomem[GLOBAL_ACC_R] = 1626296 {8:203287,}
traffic_breakdown_coretomem[GLOBAL_ACC_W] = 6302400 {72:45600,136:22200,}
traffic_breakdown_coretomem[INST_ACC_R] = 672 {8:84,}
traffic_breakdown_memtocore[CONST_ACC_R] = 2016 {72:28,}
traffic_breakdown_memtocore[GLOBAL_ACC_R] = 18893112 {40:38,72:136723,136:66526,}
traffic_breakdown_memtocore[GLOBAL_ACC_W] = 542400 {8:67800,}
traffic_breakdown_memtocore[INST_ACC_R] = 11424 {136:84,}
maxmrqlatency = 1183 
maxdqlatency = 0 
maxmflatency = 61305 
averagemflatency = 14208 
max_icnt2mem_latency = 61039 
max_icnt2sh_latency = 2161756 
mrq_lat_table:16040 	706 	1281 	3240 	8087 	11201 	18052 	28847 	38276 	5174 	6 	0 	0 	0 	0 	0 	0 	0 	0 	0 	0 	0 	0 	0 	0 	0 	0 	0 	0 	0 	0 	0 	
dq_lat_table:0 	0 	0 	0 	0 	0 	0 	0 	0 	0 	0 	0 	0 	0 	0 	0 	0 	0 	0 	0 	0 	0 	0 	0 	0 	0 	0 	0 	0 	0 	0 	0 	
mf_lat_table:0 	0 	0 	0 	0 	0 	0 	66046 	16184 	28309 	12800 	3621 	758 	38907 	72140 	32350 	0 	0 	0 	0 	0 	0 	0 	0 	0 	0 	0 	0 	0 	0 	0 	0 	
icnt2mem_lat_table:0 	0 	50080 	10321 	2222 	6637 	22541 	13831 	13478 	4077 	281 	3576 	758 	38907 	74335 	30155 	0 	0 	0 	0 	0 	0 	0 	0 	
icnt2sh_lat_table:0 	0 	68228 	121270 	13721 	96 	0 	0 	0 	0 	0 	0 	0 	0 	0 	0 	0 	0 	8515 	18519 	36978 	3788 	0 	0 	
mf_lat_pw_table:0 	0 	0 	0 	0 	0 	0 	67 	45 	54 	15 	24 	8 	148 	272 	69 	0 	0 	0 	0 	0 	0 	0 	0 	0 	0 	0 	0 	0 	0 	0 	0 	
maximum concurrent accesses to same row:
dram[0]:        16        16        16        16        16        16        16        16        21        21        16        16        16        16        16        16 
dram[1]:        16        16        16        16        16        16        16        16        21        21        16        16        16        16        16        16 
dram[2]:        16        16        16        16        16        16        16        16        21        21        16        16        16        16        16        16 
dram[3]:        16        16        16        16        16        16        16        16        20        20        16        16        16        16        16        16 
maximum service time to same row:
dram[0]:     32536     43380     43362     43361     43333     43328     53464     53476     32536     32536     43362     43342     43293     43298     43176     43191 
dram[1]:     32536     32536     43364     43364     43340     43331     53485     53473     32536     32536     43346     43346     43274     43282     43207     43179 
dram[2]:     32535     32536     43362     43361     43338     53495     53479     53464     43380     43380     43345     43352     43284     43279     43167     43136 
dram[3]:     32535     32536     43362     43368     53507     53493     53472     53475     32536     32535     43349     43349     43301     43295     43160     43118 
average row accesses per activate:
dram[0]:  8.802575  9.026432 12.641975 12.800000  9.437788  9.893720 10.612565 10.557292  8.533334  8.569037 11.505618 12.118343  9.394495  9.481482 10.722513 10.343434 
dram[1]:  8.573222  9.022026 12.047059 12.880503  9.351598  9.309091 10.668421 10.724868  8.393442  8.789700 11.191257 12.190476  9.309091  9.570093 10.502564 10.722513 
dram[2]:  8.982456  8.943232 12.487804 12.412121  9.225225  9.525581 10.084578 10.612565  8.865801  8.682203 12.047059 11.838150  9.351598  9.394495 10.666667 10.611399 
dram[3]:  8.827586  9.142858 12.190476 13.298701  9.225225  9.481482 10.289340  9.985222  8.714893  8.677966 11.906977 11.906977  8.789700  9.394495 10.138614 10.039216 
average row locality = 130910/13034 = 10.043732
number of total memory accesses made:
dram[0]:         0         0         0         0         0         0         0         0         0         0         0         0         0         0         0         0 
dram[1]:         0         0         0         0         0         0         0         0         0         0         0         0         0         0         0         0 
dram[2]:         0         0         0         0         0         0         0         0         0         0         0         0         0         0         0         0 
dram[3]:         0         0         0         0         0         0         0         0         0         0         0         0         0         0         0         0 
total accesses: 0
min_bank_accesses = 0!
min_chip_accesses = 0!
number of total read accesses:
dram[0]:      1411      1409      1408      1408      1408      1408      1394      1394      1408      1408      1408      1408      1408      1408      1408      1408 
dram[1]:      1409      1408      1408      1408      1408      1408      1394      1394      1408      1408      1408      1408      1408      1408      1408      1408 
dram[2]:      1408      1408      1408      1408      1408      1408      1394      1394      1408      1408      1408      1408      1408      1408      1408      1408 
dram[3]:      1408      1408      1408      1408      1408      1408      1394      1394      1408      1408      1408      1408      1408      1408      1408      1408 
total reads: 90005
bank skew: 1411/1394 = 1.01
chip skew: 22504/22500 = 1.00
number of total write accesses:
dram[0]:       640       640       640       640       640       640       633       633       640       640       640       640       640       640       640       640 
dram[1]:       640       640       640       640       640       640       633       633       640       640       640       640       640       640       640       640 
dram[2]:       640       640       640       640       640       640       633       633       640       641       640       640       640       640       640       640 
dram[3]:       640       640       640       640       640       640       633       633       640       640       640       640       640       640       640       640 
total reads: 40905
bank skew: 641/633 = 1.01
chip skew: 10227/10226 = 1.00
average mf latency per bank:
dram[0]:      33394     32788     33124     33094     26419     26412     24435     24518     32876     32644     32738     32730     27622     27702     25658     25608
dram[1]:      32847     32918     33072     33148     26143     26330     24828     24717     32399     32420     32970     33007     27461     27581     25784     25792
dram[2]:      32793     32810     32864     33082     26390     26227     24462     24541     32326     32353     32693     32924     27505     27312     25560     25668
dram[3]:      32621     32682     33092     33066     26093     26210     24588     24593     32139     32348     33014     32961     27016     27099     25764     25834
maximum mf latency per bank:
dram[0]:      61292     61305     53564     53588     53572     53643     53621     53633     58676     58626     58671     58752     53442     53463     53418     53429
dram[1]:      61290     61292     53564     53605     53566     53633     53582     53714     58656     58655     58687     58746     53421     53455     53439     53493
dram[2]:      61271     61297     53577     53589     53608     53585     53551     53643     58658     58638     58693     58784     53460     53467     53445     53424
dram[3]:      61262     61285     53537     53590     53560     53595     53567     53650     58644     58618     58685     58763     53435     53482     53390     53442
Memory Partition 0: 
Cache L2_bank_000:
MSHR contents

Cache L2_bank_001:
MSHR contents

In Dram Latency Queue (total = 0): 
DRAM[0]: 16 bks, busW=4 BL=8 CL=12, tRRD=2 tCCD=6, tRCD=12 tRAS=28 tRP=12 tRC=40
n_cmd=3601565 n_nop=3464185 n_act=3238 n_pre=3222 n_req=32730 n_rd=90016 n_write=40904 bw_util=0.0727
n_activity=277362 dram_eff=0.944
bk0: 5644a 3518592i bk1: 5636a 3509993i bk2: 5632a 3502972i bk3: 5632a 3491061i bk4: 5632a 3464435i bk5: 5632a 3458723i bk6: 5576a 3476990i bk7: 5576a 3468663i bk8: 5632a 3520773i bk9: 5632a 3509401i bk10: 5632a 3500685i bk11: 5632a 3491242i bk12: 5632a 3468558i bk13: 5632a 3456575i bk14: 5632a 3473680i bk15: 5632a 3464391i 
dram_util_bins: 0 0 0 0 0 0 0 0 0 0
dram_eff_bins: 0 0 0 0 0 0 0 0 0 0
mrqq: max=64 avg=3.17327
Memory Partition 1: 
Cache L2_bank_002:
MSHR contents

Cache L2_bank_003:
MSHR contents

In Dram Latency Queue (total = 0): 
DRAM[1]: 16 bks, busW=4 BL=8 CL=12, tRRD=2 tCCD=6, tRCD=12 tRAS=28 tRP=12 tRC=40
n_cmd=3601565 n_nop=3464151 n_act=3261 n_pre=3245 n_req=32727 n_rd=90004 n_write=40904 bw_util=0.0727
n_activity=276860 dram_eff=0.9457
bk0: 5636a 3518407i bk1: 5632a 3508501i bk2: 5632a 3498477i bk3: 5632a 3487269i bk4: 5632a 3466568i bk5: 5632a 3459596i bk6: 5576a 3473465i bk7: 5576a 3465812i bk8: 5632a 3518923i bk9: 5632a 3508477i bk10: 5632a 3499487i bk11: 5632a 3488465i bk12: 5632a 3468543i bk13: 5632a 3460117i bk14: 5632a 3472790i bk15: 5632a 3467970i 
dram_util_bins: 0 0 0 0 0 0 0 0 0 0
dram_eff_bins: 0 0 0 0 0 0 0 0 0 0
mrqq: max=64 avg=3.16617
Memory Partition 2: 
Cache L2_bank_004:
MSHR contents

Cache L2_bank_005:
MSHR contents

In Dram Latency Queue (total = 0): 
DRAM[2]: 16 bks, busW=4 BL=8 CL=12, tRRD=2 tCCD=6, tRCD=12 tRAS=28 tRP=12 tRC=40
n_cmd=3601565 n_nop=3464181 n_act=3247 n_pre=3231 n_req=32727 n_rd=90000 n_write=40906 bw_util=0.07269
n_activity=276855 dram_eff=0.9457
bk0: 5632a 3519337i bk1: 5632a 3506047i bk2: 5632a 3503974i bk3: 5632a 3486526i bk4: 5632a 3470234i bk5: 5632a 3462765i bk6: 5576a 3473561i bk7: 5576a 3468877i bk8: 5632a 3520198i bk9: 5632a 3506643i bk10: 5632a 3501476i bk11: 5632a 3487152i bk12: 5632a 3469076i bk13: 5632a 3460592i bk14: 5632a 3472711i bk15: 5632a 3464460i 
dram_util_bins: 0 0 0 0 0 0 0 0 0 0
dram_eff_bins: 0 0 0 0 0 0 0 0 0 0
mrqq: max=64 avg=3.16922
Memory Partition 3: 
Cache L2_bank_006:
MSHR contents

Cache L2_bank_007:
MSHR contents

In Dram Latency Queue (total = 0): 
DRAM[3]: 16 bks, busW=4 BL=8 CL=12, tRRD=2 tCCD=6, tRCD=12 tRAS=28 tRP=12 tRC=40
n_cmd=3601565 n_nop=3464101 n_act=3288 n_pre=3272 n_req=32726 n_rd=90000 n_write=40904 bw_util=0.07269
n_activity=276978 dram_eff=0.9452
bk0: 5632a 3521550i bk1: 5632a 3506530i bk2: 5632a 3497864i bk3: 5632a 3488573i bk4: 5632a 3468054i bk5: 5632a 3460926i bk6: 5576a 3472742i bk7: 5576a 3464920i bk8: 5632a 3521183i bk9: 5632a 3506169i bk10: 5632a 3499321i bk11: 5632a 3488603i bk12: 5632a 3465333i bk13: 5632a 3462253i bk14: 5632a 3471205i bk15: 5632a 3461679i 
dram_util_bins: 0 0 0 0 0 0 0 0 0 0
dram_eff_bins: 0 0 0 0 0 0 0 0 0 0
mrqq: max=64 avg=3.16601

========= L2 cache stats =========
L2_cache_bank[0]: Access = 33976, Miss = 11253, Miss_rate = 0.331, Pending_hits = 13450, Reservation_fails = 0
L2_cache_bank[1]: Access = 33910, Miss = 11251, Miss_rate = 0.332, Pending_hits = 13466, Reservation_fails = 0
L2_cache_bank[2]: Access = 33909, Miss = 11251, Miss_rate = 0.332, Pending_hits = 13435, Reservation_fails = 0
L2_cache_bank[3]: Access = 33880, Miss = 11250, Miss_rate = 0.332, Pending_hits = 13399, Reservation_fails = 0
L2_cache_bank[4]: Access = 33880, Miss = 11250, Miss_rate = 0.332, Pending_hits = 13377, Reservation_fails = 0
L2_cache_bank[5]: Access = 33880, Miss = 11250, Miss_rate = 0.332, Pending_hits = 13532, Reservation_fails = 0
L2_cache_bank[6]: Access = 33882, Miss = 11250, Miss_rate = 0.332, Pending_hits = 13334, Reservation_fails = 0
L2_cache_bank[7]: Access = 33882, Miss = 11250, Miss_rate = 0.332, Pending_hits = 13392, Reservation_fails = 0
L2_total_cache_accesses = 271199
L2_total_cache_misses = 90005
L2_total_cache_miss_rate = 0.3319
L2_total_cache_pending_hits = 107385
L2_total_cache_reservation_fails = 0
L2_total_cache_breakdown:
	L2_cache_stats_breakdown[GLOBAL_ACC_R][HIT] = 6047
	L2_cache_stats_breakdown[GLOBAL_ACC_R][HIT_RESERVED] = 107276
	L2_cache_stats_breakdown[GLOBAL_ACC_R][MISS] = 89964
	L2_cache_stats_breakdown[GLOBAL_ACC_R][RESERVATION_FAIL] = 0
	L2_cache_stats_breakdown[LOCAL_ACC_R][HIT] = 0
	L2_cache_stats_breakdown[LOCAL_ACC_R][HIT_RESERVED] = 0
	L2_cache_stats_breakdown[LOCAL_ACC_R][MISS] = 0
	L2_cache_stats_breakdown[LOCAL_ACC_R][RESERVATION_FAIL] = 0
	L2_cache_stats_breakdown[CONST_ACC_R][HIT] = 0
	L2_cache_stats_breakdown[CONST_ACC_R][HIT_RESERVED] = 27
	L2_cache_stats_breakdown[CONST_ACC_R][MISS] = 1
	L2_cache_stats_breakdown[CONST_ACC_R][RESERVATION_FAIL] = 0
	L2_cache_stats_breakdown[TEXTURE_ACC_R][HIT] = 0
	L2_cache_stats_breakdown[TEXTURE_ACC_R][HIT_RESERVED] = 0
[...]
F:  1952918----T:  1955523 	 St: c0ae0000 Sz: 4096 	 Sm: 0 	 T: memcpy_h2d(1.758947)
F:  1955523----T:  1963763 	 St: c0ae1000 Sz: 61440 	 Sm: 0 	 T: memcpy_h2d(5.563808)
F:  1963763----T:  1966368 	 St: c0af0000 Sz: 4096 	 Sm: 0 	 T: memcpy_h2d(1.758947)
F:  1966368----T:  1974608 	 St: c0af1000 Sz: 61440 	 Sm: 0 	 T: memcpy_h2d(5.563808)
F:  1974608----T:  1977213 	 St: c0b00000 Sz: 4096 	 Sm: 0 	 T: memcpy_h2d(1.758947)
F:  1977213----T:  1985453 	 St: c0b01000 Sz: 61440 	 Sm: 0 	 T: memcpy_h2d(5.563808)
F:  1986254----T:  1989054 	 St: c1110000 Sz: 8192 	 Sm: 0 	 T: memcpy_h2d(1.890614)
F:  1989054----T:  1996834 	 St: c1112000 Sz: 57344 	 Sm: 0 	 T: memcpy_h2d(5.253207)
F:  1996834----T:  1999439 	 St: c1120000 Sz: 4096 	 Sm: 0 	 T: memcpy_h2d(1.758947)
F:  1999439----T:  2007679 	 St: c1121000 Sz: 61440 	 Sm: 0 	 T: memcpy_h2d(5.563808)
F:  2007679----T:  2010284 	 St: c1130000 Sz: 4096 	 Sm: 0 	 T: memcpy_h2d(1.758947)
F:  2010284----T:  2018524 	 St: c1131000 Sz: 61440 	 Sm: 0 	 T: memcpy_h2d(5.563808)
F:  2018524----T:  2021129 	 St: c0b10000 Sz: 4096 	 Sm: 0 	 T: memcpy_h2d(1.758947)
F:  2021129----T:  2029369 	 St: c0b11000 Sz: 61440 	 Sm: 0 	 T: memcpy_h2d(5.563808)
F:  2029369----T:  2031974 	 St: c0b20000 Sz: 4096 	 Sm: 0 	 T: memcpy_h2d(1.758947)
F:  2031974----T:  2040214 	 St: c0b21000 Sz: 61440 	 Sm: 0 	 T: memcpy_h2d(5.563808)
F:  2040214----T:  2042819 	 St: c0b30000 Sz: 4096 	 Sm: 0 	 T: memcpy_h2d(1.758947)
F:  2042819----T:  2051059 	 St: c0b31000 Sz: 61440 	 Sm: 0 	 T: memcpy_h2d(5.563808)
F:  2051758----T:  2054558 	 St: c1140000 Sz: 8192 	 Sm: 0 	 T: memcpy_h2d(1.890614)
F:  2054558----T:  2062338 	 St: c1142000 Sz: 57344 	 Sm: 0 	 T: memcpy_h2d(5.253207)
F:  2062338----T:  2064943 	 St: c1150000 Sz: 4096 	 Sm: 0 	 T: memcpy_h2d(1.758947)
F:  2064943----T:  2073183 	 St: c1151000 Sz: 61440 	 Sm: 0 	 T: memcpy_h2d(5.563808)
F:  2073183----T:  2075788 	 St: c1160000 Sz: 4096 	 Sm: 0 	 T: memcpy_h2d(1.758947)
F:  2075788----T:  2084028 	 St: c1161000 Sz: 61440 	 Sm: 0 	 T: memcpy_h2d(5.563808)
F:  2084028----T:  2086633 	 St: c1170000 Sz: 4096 	 Sm: 0 	 T: memcpy_h2d(1.758947)
F:  2086633----T:  2094873 	 St: c1171000 Sz: 61440 	 Sm: 0 	 T: memcpy_h2d(5.563808)
F:  2094873----T:  2097478 	 St: c0b40000 Sz: 4096 	 Sm: 0 	 T: memcpy_h2d(1.758947)
F:  2097478----T:  2105718 	 St: c0b41000 Sz: 61440 	 Sm: 0 	 T: memcpy_h2d(5.563808)
F:  2105718----T:  2108323 	 St: c0b50000 Sz: 4096 	 Sm: 0 	 T: memcpy_h2d(1.758947)
F:  2108323----T:  2116563 	 St: c0b51000 Sz: 61440 	 Sm: 0 	 T: memcpy_h2d(5.563808)
F:  2116563----T:  2119168 	 St: c0b60000 Sz: 4096 	 Sm: 0 	 T: memcpy_h2d(1.758947)
F:  2119168----T:  2127408 	 St: c0b61000 Sz: 61440 	 Sm: 0 	 T: memcpy_h2d(5.563808)
F:  2127408----T:  2130013 	 St: c0b70000 Sz: 4096 	 Sm: 0 	 T: memcpy_h2d(1.758947)
F:  2130013----T:  2138253 	 St: c0b71000 Sz: 61440 	 Sm: 0 	 T: memcpy_h2d(5.563808)
F:  2138789----T:  2141394 	 St: c1180000 Sz: 4096 	 Sm: 0 	 T: memcpy_h2d(1.758947)
F:  2141394----T:  2149634 	 St: c1181000 Sz: 61440 	 Sm: 0 	 T: memcpy_h2d(5.563808)
F:  2149634----T:  2152239 	 St: c0b80000 Sz: 4096 	 Sm: 0 	 T: memcpy_h2d(1.758947)
F:  2152239----T:  2160479 	 St: c0b81000 Sz: 61440 	 Sm: 0 	 T: memcpy_h2d(5.563808)
F:  2383907----T:  3343802 	 	 	 Kl: 2 	 Sm: 0 	 T: kernel_launch(648.139771)
F:  2385661----T:  2388266 	 St: c0010000 Sz: 4096 	 Sm: 0 	 T: memcpy_h2d(1.758947)
F:  2388266----T:  2396506 	 St: c0011000 Sz: 61440 	 Sm: 0 	 T: memcpy_h2d(5.563808)
F:  2396506----T:  2400725 	 St: c0020000 Sz: 24576 	 Sm: 0 	 T: memcpy_h2d(2.848751)
F:  2400725----T:  2406686 	 St: c0026000 Sz: 40960 	 Sm: 0 	 T: memcpy_h2d(4.024983)
F:  2406686----T:  2410116 	 St: c0030000 Sz: 16384 	 Sm: 0 	 T: memcpy_h2d(2.316003)
F:  2410116----T:  2416981 	 St: c0034000 Sz: 49152 	 Sm: 0 	 T: memcpy_h2d(4.635382)
F:  2416981----T:  2419781 	 St: c0040000 Sz: 8192 	 Sm: 0 	 T: memcpy_h2d(1.890614)
F:  2419781----T:  2427561 	 St: c0042000 Sz: 57344 	 Sm: 0 	 T: memcpy_h2d(5.253207)
F:  2428672----T:  2431758 	 St: c0050000 Sz: 12288 	 Sm: 0 	 T: memcpy_h2d(2.083727)
F:  2431758----T:  2439080 	 St: c0053000 Sz: 53248 	 Sm: 0 	 T: memcpy_h2d(4.943957)
F:  2439080----T:  2442166 	 St: c0060000 Sz: 12288 	 Sm: 0 	 T: memcpy_h2d(2.083727)
F:  2442166----T:  2449488 	 St: c0063000 Sz: 53248 	 Sm: 0 	 T: memcpy_h2d(4.943957)
F:  2449488----T:  2453707 	 St: c0070000 Sz: 24576 	 Sm: 0 	 T: memcpy_h2d(2.848751)
F:  2453707----T:  2459668 	 St: c0076000 Sz: 40960 	 Sm: 0 	 T: memcpy_h2d(4.024983)
F:  2459668----T:  2462273 	 St: c0080000 Sz: 4096 	 Sm: 0 	 T: memcpy_h2d(1.758947)
F:  2462273----T:  2470513 	 St: c0081000 Sz: 61440 	 Sm: 0 	 T: memcpy_h2d(5.563808)
F:  2471905----T:  2474705 	 St: c0090000 Sz: 8192 	 Sm: 0 	 T: memcpy_h2d(1.890614)
F:  2474705----T:  2482485 	 St: c0092000 Sz: 57344 	 Sm: 0 	 T: memcpy_h2d(5.253207)
F:  2482485----T:  2485285 	 St: c00a0000 Sz: 8192 	 Sm: 0 	 T: memcpy_h2d(1.890614)
F:  2485285----T:  2493065 	 St: c00a2000 Sz: 57344 	 Sm: 0 	 T: memcpy_h2d(5.253207)
F:  2493065----T:  2496151 	 St: c00b0000 Sz: 12288 	 Sm: 0 	 T: memcpy_h2d(2.083727)
F:  2496151----T:  2503473 	 St: c00b3000 Sz: 53248 	 Sm: 0 	 T: memcpy_h2d(4.943957)
F:  2504734----T:  2508546 	 St: c00c0000 Sz: 20480 	 Sm: 0 	 T: memcpy_h2d(2.573936)
F:  2508546----T:  2514958 	 St: c00c5000 Sz: 45056 	 Sm: 0 	 T: memcpy_h2d(4.329507)
F:  2514958----T:  2518044 	 St: c00d0000 Sz: 12288 	 Sm: 0 	 T: memcpy_h2d(2.083727)
F:  2518044----T:  2525366 	 St: c00d3000 Sz: 53248 	 Sm: 0 	 T: memcpy_h2d(4.943957)
F:  2525366----T:  2530007 	 St: c00e0000 Sz: 28672 	 Sm: 0 	 T: memcpy_h2d(3.133693)
F:  2530007----T:  2535522 	 St: c00e7000 Sz: 36864 	 Sm: 0 	 T: memcpy_h2d(3.723835)
F:  2535522----T:  2538127 	 St: c00f0000 Sz: 4096 	 Sm: 0 	 T: memcpy_h2d(1.758947)
F:  2538127----T:  2546367 	 St: c00f1000 Sz: 61440 	 Sm: 0 	 T: memcpy_h2d(5.563808)
F:  2547792----T:  2550592 	 St: c0100000 Sz: 8192 	 Sm: 0 	 T: memcpy_h2d(1.890614)
F:  2550592----T:  2558372 	 St: c0102000 Sz: 57344 	 Sm: 0 	 T: memcpy_h2d(5.253207)
F:  2558372----T:  2560977 	 St: c0110000 Sz: 4096 	 Sm: 0 	 T: memcpy_h2d(1.758947)
F:  2560977----T:  2569217 	 St: c0111000 Sz: 61440 	 Sm: 0 	 T: memcpy_h2d(5.563808)
F:  2569217----T:  2574732 	 St: c0120000 Sz: 36864 	 Sm: 0 	 T: memcpy_h2d(3.723835)
F:  2574732----T:  2579373 	 St: c0129000 Sz: 28672 	 Sm: 0 	 T: memcpy_h2d(3.133693)
F:  2580698----T:  2583303 	 St: c0130000 Sz: 4096 	 Sm: 0 	 T: memcpy_h2d(1.758947)
F:  2583303----T:  2591543 	 St: c0131000 Sz: 61440 	 Sm: 0 	 T: memcpy_h2d(5.563808)
F:  2591543----T:  2594973 	 St: c0140000 Sz: 16384 	 Sm: 0 	 T: memcpy_h2d(2.316003)
F:  2594973----T:  2601838 	 St: c0144000 Sz: 49152 	 Sm: 0 	 T: memcpy_h2d(4.635382)
F:  2601838----T:  2608250 	 St: c0150000 Sz: 45056 	 Sm: 0 	 T: memcpy_h2d(4.329507)
F:  2608250----T:  2612062 	 St: c015b000 Sz: 20480 	 Sm: 0 	 T: memcpy_h2d(2.573936)
F:  2612062----T:  2614667 	 St: c0160000 Sz: 4096 	 Sm: 0 	 T: memcpy_h2d(1.758947)
F:  2614667----T:  2622907 	 St: c0161000 Sz: 61440 	 Sm: 0 	 T: memcpy_h2d(5.563808)
F:  2624776----T:  2629850 	 St: c0170000 Sz: 32768 	 Sm: 0 	 T: memcpy_h2d(3.426064)
F:  2629850----T:  2634924 	 St: c0178000 Sz: 32768 	 Sm: 0 	 T: memcpy_h2d(3.426064)
F:  2634924----T:  2638010 	 St: c0180000 Sz: 12288 	 Sm: 0 	 T: memcpy_h2d(2.083727)
F:  2638010----T:  2645332 	 St: c0183000 Sz: 53248 	 Sm: 0 	 T: memcpy_h2d(4.943957)
F:  2645332----T:  2649551 	 St: c0190000 Sz: 24576 	 Sm: 0 	 T: memcpy_h2d(2.848751)
F:  2649551----T:  2655512 	 St: c0196000 Sz: 40960 	 Sm: 0 	 T: memcpy_h2d(4.024983)
F:  2656806----T:  2661447 	 St: c01a0000 Sz: 28672 	 Sm: 0 	 T: memcpy_h2d(3.133693)
F:  2661447----T:  2666962 	 St: c01a7000 Sz: 36864 	 Sm: 0 	 T: memcpy_h2d(3.723835)
F:  2666962----T:  2670392 	 St: c01b0000 Sz: 16384 	 Sm: 0 	 T: memcpy_h2d(2.316003)
F:  2670392----T:  2677257 	 St: c01b4000 Sz: 49152 	 Sm: 0 	 T: memcpy_h2d(4.635382)
F:  2677257----T:  2681069 	 St: c01c0000 Sz: 20480 	 Sm: 0 	 T: memcpy_h2d(2.573936)
F:  2681069----T:  2687481 	 St: c01c5000 Sz: 45056 	 Sm: 0 	 T: memcpy_h2d(4.329507)
F:  2687481----T:  2690086 	 St: c01d0000 Sz: 4096 	 Sm: 0 	 T: memcpy_h2d(1.758947)
F:  2690086----T:  2698326 	 St: c01d1000 Sz: 61440 	 Sm: 0 	 T: memcpy_h2d(5.563808)
F:  2699842----T:  2702447 	 St: c01e0000 Sz: 4096 	 Sm: 0 	 T: memcpy_h2d(1.758947)
F:  2702447----T:  2710687 	 St: c01e1000 Sz: 61440 	 Sm: 0 	 T: memcpy_h2d(5.563808)
F:  2710687----T:  2714117 	 St: c01f0000 Sz: 16384 	 Sm: 0 	 T: memcpy_h2d(2.316003)
F:  2714117----T:  2720982 	 St: c01f4000 Sz: 49152 	 Sm: 0 	 T: memcpy_h2d(4.635382)
F:  2720982----T:  2723587 	 St: c0200000 Sz: 4096 	 Sm: 0 	 T: memcpy_h2d(1.758947)
F:  2723587----T:  2731827 	 St: c0201000 Sz: 61440 	 Sm: 0 	 T: memcpy_h2d(5.563808)
F:  2733131----T:  2736217 	 St: c0210000 Sz: 12288 	 Sm: 0 	 T: memcpy_h2d(2.083727)
F:  2736217----T:  2743539 	 St: c0213000 Sz: 53248 	 Sm: 0 	 T: memcpy_h2d(4.943957)
F:  2743539----T:  2746144 	 St: c0220000 Sz: 4096 	 Sm: 0 	 T: memcpy_h2d(1.758947)
F:  2746144----T:  2754384 	 St: c0221000 Sz: 61440 	 Sm: 0 	 T: memcpy_h2d(5.563808)
F:  2754384----T:  2758196 	 St: c0230000 Sz: 20480 	 Sm: 0 	 T: memcpy_h2d(2.573936)
F:  2758196----T:  2764608 	 St: c0235000 Sz: 45056 	 Sm: 0 	 T: memcpy_h2d(4.329507)
F:  2765728----T:  2768528 	 St: c0240000 Sz: 8192 	 Sm: 0 	 T: memcpy_h2d(1.890614)
F:  2768528----T:  2776308 	 St: c0242000 Sz: 57344 	 Sm: 0 	 T: memcpy_h2d(5.253207)
F:  2776308----T:  2779738 	 St: c0250000 Sz: 16384 	 Sm: 0 	 T: memcpy_h2d(2.316003)
F:  2779738----T:  2786603 	 St: c0254000 Sz: 49152 	 Sm: 0 	 T: memcpy_h2d(4.635382)
F:  2786603----T:  2790033 	 St: c0260000 Sz: 16384 	 Sm: 0 	 T: memcpy_h2d(2.316003)
F:  2790033----T:  2796898 	 St: c0264000 Sz: 49152 	 Sm: 0 	 T: memcpy_h2d(4.635382)
F:  2796898----T:  2799503 	 St: c0270000 Sz: 4096 	 Sm: 0 	 T: memcpy_h2d(1.758947)
F:  2799503----T:  2807743 	 St: c0271000 Sz: 61440 	 Sm: 0 	 T: memcpy_h2d(5.563808)
F:  2809160----T:  2811765 	 St: c0280000 Sz: 4096 	 Sm: 0 	 T: memcpy_h2d(1.758947)
F:  2811765----T:  2820005 	 St: c0281000 Sz: 61440 	 Sm: 0 	 T: memcpy_h2d(5.563808)
F:  2820005----T:  2824224 	 St: c0290000 Sz: 24576 	 Sm: 0 	 T: memcpy_h2d(2.848751)
F:  2824224----T:  2830185 	 St: c0296000 Sz: 40960 	 Sm: 0 	 T: memcpy_h2d(4.024983)
F:  2830185----T:  2834404 	 St: c02a0000 Sz: 24576 	 Sm: 0 	 T: memcpy_h2d(2.848751)
F:  2834404----T:  2840365 	 St: c02a6000 Sz: 40960 	 Sm: 0 	 T: memcpy_h2d(4.024983)
F:  2841583----T:  2846224 	 St: c02b0000 Sz: 28672 	 Sm: 0 	 T: memcpy_h2d(3.133693)
F:  2846224----T:  2851739 	 St: c02b7000 Sz: 36864 	 Sm: 0 	 T: memcpy_h2d(3.723835)
F:  2851739----T:  2854344 	 St: c02c0000 Sz: 4096 	 Sm: 0 	 T: memcpy_h2d(1.758947)
F:  2854344----T:  2862584 	 St: c02c1000 Sz: 61440 	 Sm: 0 	 T: memcpy_h2d(5.563808)
F:  2862584----T:  2865670 	 St: c02d0000 Sz: 12288 	 Sm: 0 	 T: memcpy_h2d(2.083727)
F:  2865670----T:  2872992 	 St: c02d3000 Sz: 53248 	 Sm: 0 	 T: memcpy_h2d(4.943957)
F:  2872992----T:  2875597 	 St: c02e0000 Sz: 4096 	 Sm: 0 	 T: memcpy_h2d(1.758947)
F:  2875597----T:  2883837 	 St: c02e1000 Sz: 61440 	 Sm: 0 	 T: memcpy_h2d(5.563808)
F:  2885087----T:  2888173 	 St: c02f0000 Sz: 12288 	 Sm: 0 	 T: memcpy_h2d(2.083727)
F:  2888173----T:  2895495 	 St: c02f3000 Sz: 53248 	 Sm: 0 	 T: memcpy_h2d(4.943957)
F:  2895495----T:  2899714 	 St: c0300000 Sz: 24576 	 Sm: 0 	 T: memcpy_h2d(2.848751)
F:  2899714----T:  2905675 	 St: c0306000 Sz: 40960 	 Sm: 0 	 T: memcpy_h2d(4.024983)
F:  2905675----T:  2908475 	 St: c0310000 Sz: 8192 	 Sm: 0 	 T: memcpy_h2d(1.890614)
F:  2908475----T:  2916255 	 St: c0312000 Sz: 57344 	 Sm: 0 	 T: memcpy_h2d(5.253207)
F:  2917377----T:  2920463 	 St: c0320000 Sz: 12288 	 Sm: 0 	 T: memcpy_h2d(2.083727)
F:  2920463----T:  2927785 	 St: c0323000 Sz: 53248 	 Sm: 0 	 T: memcpy_h2d(4.943957)
F:  2927785----T:  2930390 	 St: c0330000 Sz: 4096 	 Sm: 0 	 T: memcpy_h2d(1.758947)
F:  2930390----T:  2938630 	 St: c0331000 Sz: 61440 	 Sm: 0 	 T: memcpy_h2d(5.563808)
F:  2938630----T:  2945952 	 St: c0340000 Sz: 53248 	 Sm: 0 	 T: memcpy_h2d(4.943957)
F:  2945952----T:  2949038 	 St: c034d000 Sz: 12288 	 Sm: 0 	 T: memcpy_h2d(2.083727)
F:  2949038----T:  2951838 	 St: c0350000 Sz: 8192 	 Sm: 0 	 T: memcpy_h2d(1.890614)
F:  2951838----T:  2959618 	 St: c0352000 Sz: 57344 	 Sm: 0 	 T: memcpy_h2d(5.253207)
F:  2961630----T:  2965060 	 St: c0360000 Sz: 16384 	 Sm: 0 	 T: memcpy_h2d(2.316003)
F:  2965060----T:  2971925 	 St: c0364000 Sz: 49152 	 Sm: 0 	 T: memcpy_h2d(4.635382)
F:  2971925----T:  2974725 	 St: c0370000 Sz: 8192 	 Sm: 0 	 T: memcpy_h2d(1.890614)
F:  2974725----T:  2982505 	 St: c0372000 Sz: 57344 	 Sm: 0 	 T: memcpy_h2d(5.253207)
F:  2982505----T:  2986317 	 St: c0380000 Sz: 20480 	 Sm: 0 	 T: memcpy_h2d(2.573936)
F:  2986317----T:  2992729 	 St: c0385000 Sz: 45056 	 Sm: 0 	 T: memcpy_h2d(4.329507)
F:  2994035----T:  2996640 	 St: c0390000 Sz: 4096 	 Sm: 0 	 T: memcpy_h2d(1.758947)
F:  2996640----T:  3004880 	 St: c0391000 Sz: 61440 	 Sm: 0 	 T: memcpy_h2d(5.563808)
F:  3004880----T:  3007485 	 St: c03a0000 Sz: 4096 	 Sm: 0 	 T: memcpy_h2d(1.758947)
F:  3007485----T:  3015725 	 St: c03a1000 Sz: 61440 	 Sm: 0 	 T: memcpy_h2d(5.563808)
F:  3015725----T:  3021240 	 St: c03b0000 Sz: 36864 	 Sm: 0 	 T: memcpy_h2d(3.723835)
F:  3021240----T:  3025881 	 St: c03b9000 Sz: 28672 	 Sm: 0 	 T: memcpy_h2d(3.133693)
F:  3025881----T:  3028681 	 St: c03c0000 Sz: 8192 	 Sm: 0 	 T: memcpy_h2d(1.890614)
F:  3028681----T:  3036461 	 St: c03c2000 Sz: 57344 	 Sm: 0 	 T: memcpy_h2d(5.253207)
F:  3038358----T:  3041444 	 St: c03d0000 Sz: 12288 	 Sm: 0 	 T: memcpy_h2d(2.083727)
F:  3041444----T:  3048766 	 St: c03d3000 Sz: 53248 	 Sm: 0 	 T: memcpy_h2d(4.943957)
F:  3048766----T:  3051371 	 St: c03e0000 Sz: 4096 	 Sm: 0 	 T: memcpy_h2d(1.758947)
F:  3051371----T:  3059611 	 St: c03e1000 Sz: 61440 	 Sm: 0 	 T: memcpy_h2d(5.563808)
F:  3059611----T:  3062216 	 St: c03f0000 Sz: 4096 	 Sm: 0 	 T: memcpy_h2d(1.758947)
F:  3062216----T:  3070456 	 St: c03f1000 Sz: 61440 	 Sm: 0 	 T: memcpy_h2d(5.563808)
F:  3071646----T:  3076720 	 St: c0400000 Sz: 32768 	 Sm: 0 	 T: memcpy_h2d(3.426064)
F:  3076720----T:  3081794 	 St: c0408000 Sz: 32768 	 Sm: 0 	 T: memcpy_h2d(3.426064)
F:  3081794----T:  3085224 	 St: c0410000 Sz: 16384 	 Sm: 0 	 T: memcpy_h2d(2.316003)
F:  3085224----T:  3092089 	 St: c0414000 Sz: 49152 	 Sm: 0 	 T: memcpy_h2d(4.635382)
F:  3092089----T:  3095175 	 St: c0420000 Sz: 12288 	 Sm: 0 	 T: memcpy_h2d(2.083727)
F:  3095175----T:  3102497 	 St: c0423000 Sz: 53248 	 Sm: 0 	 T: memcpy_h2d(4.943957)
F:  3103613----T:  3106218 	 St: c0430000 Sz: 4096 	 Sm: 0 	 T: memcpy_h2d(1.758947)
F:  3106218----T:  3114458 	 St: c0431000 Sz: 61440 	 Sm: 0 	 T: memcpy_h2d(5.563808)
F:  3114458----T:  3117544 	 St: c0440000 Sz: 12288 	 Sm: 0 	 T: memcpy_h2d(2.083727)
F:  3117544----T:  3124866 	 St: c0443000 Sz: 53248 	 Sm: 0 	 T: memcpy_h2d(4.943957)
F:  3124866----T:  3129085 	 St: c0450000 Sz: 24576 	 Sm: 0 	 T: memcpy_h2d(2.848751)
F:  3129085----T:  3135046 	 St: c0456000 Sz: 40960 	 Sm: 0 	 T: memcpy_h2d(4.024983)
F:  3135046----T:  3137846 	 St: c0460000 Sz: 8192 	 Sm: 0 	 T: memcpy_h2d(1.890614)
F:  3137846----T:  3145626 	 St: c0462000 Sz: 57344 	 Sm: 0 	 T: memcpy_h2d(5.253207)
F:  3146840----T:  3149640 	 St: c0470000 Sz: 8192 	 Sm: 0 	 T: memcpy_h2d(1.890614)
F:  3149640----T:  3157420 	 St: c0472000 Sz: 57344 	 Sm: 0 	 T: memcpy_h2d(5.253207)
F:  3157420----T:  3165200 	 St: c0480000 Sz: 57344 	 Sm: 0 	 T: memcpy_h2d(5.253207)
F:  3165200----T:  3168000 	 St: c048e000 Sz: 8192 	 Sm: 0 	 T: memcpy_h2d(1.890614)
F:  3168000----T:  3171086 	 St: c0490000 Sz: 12288 	 Sm: 0 	 T: memcpy_h2d(2.083727)
F:  3171086----T:  3178408 	 St: c0493000 Sz: 53248 	 Sm: 0 	 T: memcpy_h2d(4.943957)
F:  3179502----T:  3182107 	 St: c04a0000 Sz: 4096 	 Sm: 0 	 T: memcpy_h2d(1.758947)
F:  3182107----T:  3190347 	 St: c04a1000 Sz: 61440 	 Sm: 0 	 T: memcpy_h2d(5.563808)
F:  3190347----T:  3193147 	 St: c04b0000 Sz: 8192 	 Sm: 0 	 T: memcpy_h2d(1.890614)
F:  3193147----T:  3200927 	 St: c04b2000 Sz: 57344 	 Sm: 0 	 T: memcpy_h2d(5.253207)
F:  3200927----T:  3206442 	 St: c04c0000 Sz: 36864 	 Sm: 0 	 T: memcpy_h2d(3.723835)
F:  3206442----T:  3211083 	 St: c04c9000 Sz: 28672 	 Sm: 0 	 T: memcpy_h2d(3.133693)
F:  3211083----T:  3213883 	 St: c04d0000 Sz: 8192 	 Sm: 0 	 T: memcpy_h2d(1.890614)
F:  3213883----T:  3221663 	 St: c04d2000 Sz: 57344 	 Sm: 0 	 T: memcpy_h2d(5.253207)
F:  3222825----T:  3225625 	 St: c04e0000 Sz: 8192 	 Sm: 0 	 T: memcpy_h2d(1.890614)
F:  3225625----T:  3233405 	 St: c04e2000 Sz: 57344 	 Sm: 0 	 T: memcpy_h2d(5.253207)
F:  3233405----T:  3236010 	 St: c04f0000 Sz: 4096 	 Sm: 0 	 T: memcpy_h2d(1.758947)
F:  3236010----T:  3244250 	 St: c04f1000 Sz: 61440 	 Sm: 0 	 T: memcpy_h2d(5.563808)
F:  3244250----T:  3247336 	 St: c0500000 Sz: 12288 	 Sm: 0 	 T: memcpy_h2d(2.083727)
F:  3247336----T:  3254658 	 St: c0503000 Sz: 53248 	 Sm: 0 	 T: memcpy_h2d(4.943957)
F:  3255916----T:  3258521 	 St: c0510000 Sz: 4096 	 Sm: 0 	 T: memcpy_h2d(1.758947)
F:  3258521----T:  3266761 	 St: c0511000 Sz: 61440 	 Sm: 0 	 T: memcpy_h2d(5.563808)
F:  3266761----T:  3269561 	 St: c0520000 Sz: 8192 	 Sm: 0 	 T: memcpy_h2d(1.890614)
F:  3269561----T:  3277341 	 St: c0522000 Sz: 57344 	 Sm: 0 	 T: memcpy_h2d(5.253207)
F:  3277341----T:  3279946 	 St: c0530000 Sz: 4096 	 Sm: 0 	 T: memcpy_h2d(1.758947)
F:  3279946----T:  3288186 	 St: c0531000 Sz: 61440 	 Sm: 0 	 T: memcpy_h2d(5.563808)
F:  3288186----T:  3290791 	 St: c0540000 Sz: 4096 	 Sm: 0 	 T: memcpy_h2d(1.758947)
F:  3290791----T:  3299031 	 St: c0541000 Sz: 61440 	 Sm: 0 	 T: memcpy_h2d(5.563808)
F:  3300473----T:  3303559 	 St: c0550000 Sz: 12288 	 Sm: 0 	 T: memcpy_h2d(2.083727)
F:  3303559----T:  3310881 	 St: c0553000 Sz: 53248 	 Sm: 0 	 T: memcpy_h2d(4.943957)
F:  3310881----T:  3315100 	 St: c0560000 Sz: 24576 	 Sm: 0 	 T: memcpy_h2d(2.848751)
F:  3315100----T:  3321061 	 St: c0566000 Sz: 40960 	 Sm: 0 	 T: memcpy_h2d(4.024983)
F:  3321061----T:  3323861 	 St: c0570000 Sz: 8192 	 Sm: 0 	 T: memcpy_h2d(1.890614)
F:  3323861----T:  3331641 	 St: c0572000 Sz: 57344 	 Sm: 0 	 T: memcpy_h2d(5.253207)
F:  3332523----T:  3335609 	 St: c0580000 Sz: 12288 	 Sm: 0 	 T: memcpy_h2d(2.083727)
F:  3335609----T:  3342931 	 St: c0583000 Sz: 53248 	 Sm: 0 	 T: memcpy_h2d(4.943957)
F:  3565952----T:  3772738 	 	 	 Kl: 3 	 Sm: 0 	 T: kernel_launch(139.625931)
F:  3994888----T:  4145067 	 	 	 Kl: 4 	 Sm: 0 	 T: kernel_launch(101.403778)
F:  4367217----T:  4527043 	 	 	 Kl: 5 	 Sm: 0 	 T: kernel_launch(107.917625)
F:  4749193----T:  4954667 	 	 	 Kl: 6 	 Sm: 0 	 T: kernel_launch(138.740036)
F:  5176817----T:  5326857 	 	 	 Kl: 7 	 Sm: 0 	 T: kernel_launch(101.309929)
F:  5549007----T:  5710004 	 	 	 Kl: 8 	 Sm: 0 	 T: kernel_launch(108.708305)
F:  5932154----T:  6137304 	 	 	 Kl: 9 	 Sm: 0 	 T: kernel_launch(138.521271)
F:  6359454----T:  6509253 	 	 	 Kl: 10 	 Sm: 0 	 T: kernel_launch(101.147202)
F:  6731403----T:  6892313 	 	 	 Kl: 11 	 Sm: 0 	 T: kernel_launch(108.649559)
F:  7114463----T:  7320445 	 	 	 Kl: 12 	 Sm: 0 	 T: kernel_launch(139.083054)
F:  7542595----T:  7692449 	 	 	 Kl: 13 	 Sm: 0 	 T: kernel_launch(101.184334)
F:  7914599----T:  8075320 	 	 	 Kl: 14 	 Sm: 0 	 T: kernel_launch(108.521942)
F:  8297470----T:  8503976 	 	 	 Kl: 15 	 Sm: 0 	 T: kernel_launch(139.436874)
Tot_prefetch_time: 0(cycle), 0.000000(us)
Tot_kernel_exec_time: 5171726(cycle), 3492.050049(us)
Tot_kernel_exec_time_and_fault_time: 22965941(cycle), 15507.048828(us)
Tot_memcpy_h2d_time: 2841310(cycle), 1918.507812(us)
Tot_memcpy_d2h_time: 0(cycle), 0.000000(us)
Tot_memcpy_time: 2841310(cycle), 1918.507812(us)
Tot_devicesync_time: 0(cycle), 0.000000(us)
Tot_writeback_time: 0(cycle), 0.000000(us)
Tot_dma_time: 0(cycle), 0.000000(us)
Tot_memcpy_d2h_sync_wb_time: 0(cycle), 0.000000(us)
GPGPU-Sim: *** exit detected ***
