
        *** GPGPU-Sim Simulator Version 3.2.2  [build gpgpu-sim_git-commit-e6406cc958fbf80baff7920ec51f4842e6b6d8d9_modified_4] ***


GPGPU-Sim PTX: simulation mode 0 (can change with PTX_SIM_MODE_FUNC environment variable:
               1=functional simulation only, 0=detailed performance simulator)
GPGPU-Sim: Configuration options:

-network_mode                           1 # Interconnection network mode
-inter_config_file   config_fermi_islip.icnt # Interconnection network config file
-gpgpu_ptx_use_cuobjdump                    1 # Use cuobjdump to extract ptx and sass from binaries
-gpgpu_experimental_lib_support                    0 # Try to extract code from cuda libraries [Broken because of unknown cudaGetExportTable]
-gpgpu_ptx_convert_to_ptxplus                    0 # Convert SASS (native ISA) to ptxplus and run ptxplus
-gpgpu_ptx_force_max_capability                   20 # Force maximum compute capability
-gpgpu_ptx_inst_debug_to_file                    0 # Dump executed instructions' debug information to file
-gpgpu_ptx_inst_debug_file       inst_debug.txt # Executed instructions' debug output file
-gpgpu_ptx_inst_debug_thread_uid                    1 # Thread UID for executed instructions' debug output
-gpgpu_simd_model                       1 # 1 = post-dominator
-gpgpu_shader_core_pipeline              2048:32 # shader core pipeline config, i.e., {<nthread>:<warpsize>}
-gpgpu_tex_cache:l1  16:128:24,L:R:m:N:L,F:128:4,128:2 # per-shader L1 texture cache  (READ-ONLY) config  {<nsets>:<bsize>:<assoc>,<rep>:<wr>:<alloc>:<wr_alloc>,<mshr>:<N>:<merge>,<mq>:<rf>}
-gpgpu_const_cache:l1 128:64:2,L:R:f:N:L,A:2:64,4 # per-shader L1 constant memory cache  (READ-ONLY) config  {<nsets>:<bsize>:<assoc>,<rep>:<wr>:<alloc>:<wr_alloc>,<mshr>:<N>:<merge>,<mq>} 
-gpgpu_cache:il1     8:128:4,L:R:f:N:L,A:2:48,4 # shader L1 instruction cache config  {<nsets>:<bsize>:<assoc>,<rep>:<wr>:<alloc>:<wr_alloc>,<mshr>:<N>:<merge>,<mq>} 
-gpgpu_cache:dl1     64:128:6,L:L:m:N:H,A:128:8,8 # per-shader L1 data cache config  {<nsets>:<bsize>:<assoc>,<rep>:<wr>:<alloc>:<wr_alloc>,<mshr>:<N>:<merge>,<mq> | none}
-gpgpu_cache:dl1PrefL1                 none # per-shader L1 data cache config  {<nsets>:<bsize>:<assoc>,<rep>:<wr>:<alloc>:<wr_alloc>,<mshr>:<N>:<merge>,<mq> | none}
-gpgpu_cache:dl1PrefShared                 none # per-shader L1 data cache config  {<nsets>:<bsize>:<assoc>,<rep>:<wr>:<alloc>:<wr_alloc>,<mshr>:<N>:<merge>,<mq> | none}
-gmem_skip_L1D                          1 # global memory access skip L1D cache (implements -Xptxas -dlcm=cg, default=no skip)
-gpgpu_perfect_mem                      0 # enable perfect memory mode (no cache miss)
-n_regfile_gating_group                    4 # group of lanes that should be read/written together)
-gpgpu_clock_gated_reg_file                    0 # enable clock gated reg file for power calculations
-gpgpu_clock_gated_lanes                    0 # enable clock gated lanes for power calculations
-gpgpu_shader_registers                65536 # Number of registers per shader core. Limits number of concurrent CTAs. (default 8192)
-gpgpu_shader_cta                      32 # Maximum number of concurrent CTAs in shader (default 8)
-gpgpu_num_cta_barriers                   16 # Maximum number of named barriers per CTA (default 16)
-gpgpu_n_clusters                      28 # number of processing clusters
-gpgpu_n_cores_per_cluster                    1 # number of simd cores per cluster
-gpgpu_n_cluster_ejection_buffer_size                    8 # number of packets in ejection buffer
-gpgpu_n_ldst_response_buffer_size                    2 # number of response packets in ld/st unit ejection buffer
-gpgpu_shmem_size                   16384 # Size of shared memory per shader core (default 16kB)
-gpgpu_shmem_size                   98304 # Size of shared memory per shader core (default 16kB)
-gpgpu_shmem_size_PrefL1                16384 # Size of shared memory per shader core (default 16kB)
-gpgpu_shmem_size_PrefShared                16384 # Size of shared memory per shader core (default 16kB)
-gpgpu_shmem_num_banks                   32 # Number of banks in the shared memory in each shader core (default 16)
-gpgpu_shmem_limited_broadcast                    0 # Limit shared memory to do one broadcast per cycle (default on)
-gpgpu_shmem_warp_parts                    1 # Number of portions a warp is divided into for shared memory bank conflict check 
-gpgpu_warpdistro_shader                   -1 # Specify which shader core to collect the warp size distribution from
-gpgpu_warp_issue_shader                    0 # Specify which shader core to collect the warp issue distribution from
-gpgpu_local_mem_map                    1 # Mapping from local memory space address to simulated GPU physical address space (default = enabled)
-gpgpu_num_reg_banks                   32 # Number of register banks (default = 8)
-gpgpu_reg_bank_use_warp_id                    0 # Use warp ID in mapping registers to banks (default = off)
-gpgpu_operand_collector_num_units_sp                   20 # number of collector units (default = 4)
-gpgpu_operand_collector_num_units_sfu                    4 # number of collector units (default = 4)
-gpgpu_operand_collector_num_units_mem                    8 # number of collector units (default = 2)
-gpgpu_operand_collector_num_units_gen                    0 # number of collector units (default = 0)
-gpgpu_operand_collector_num_in_ports_sp                    4 # number of collector unit in ports (default = 1)
-gpgpu_operand_collector_num_in_ports_sfu                    1 # number of collector unit in ports (default = 1)
-gpgpu_operand_collector_num_in_ports_mem                    1 # number of collector unit in ports (default = 1)
-gpgpu_operand_collector_num_in_ports_gen                    0 # number of collector unit in ports (default = 0)
-gpgpu_operand_collector_num_out_ports_sp                    4 # number of collector unit in ports (default = 1)
-gpgpu_operand_collector_num_out_ports_sfu                    1 # number of collector unit in ports (default = 1)
-gpgpu_operand_collector_num_out_ports_mem                    1 # number of collector unit in ports (default = 1)
-gpgpu_operand_collector_num_out_ports_gen                    0 # number of collector unit in ports (default = 0)
-gpgpu_coalesce_arch                   13 # Coalescing arch (default = 13, anything else is off for now)
-gpgpu_num_sched_per_core                    2 # Number of warp schedulers per core
-gpgpu_max_insn_issue_per_warp                    2 # Max number of instructions that can be issued per warp in one cycle by scheduler
-gpgpu_simt_core_sim_order                    1 # Select the simulation order of cores in a cluster (0=Fix, 1=Round-Robin)
-gpgpu_pipeline_widths        4,1,1,4,1,1,6 # Pipeline widths ID_OC_SP,ID_OC_SFU,ID_OC_MEM,OC_EX_SP,OC_EX_SFU,OC_EX_MEM,EX_WB
-gpgpu_num_sp_units                     4 # Number of SP units (default=1)
-gpgpu_num_sfu_units                    1 # Number of SF units (default=1)
-gpgpu_num_mem_units                    1 # Number if ldst units (default=1) WARNING: not hooked up to anything
-gpgpu_scheduler                      gto # Scheduler configuration: < lrr | gto | two_level_active > If two_level_active:<num_active_warps>:<inner_prioritization>:<outer_prioritization>For complete list of prioritization values see shader.h enum scheduler_prioritization_typeDefault: gto
-gpgpu_concurrent_kernel_sm                    0 # Support concurrent kernels on a SM (default = disabled)
-tlb_size                              16 # Number of tlb entries per SM.
-gpgpu_dram_scheduler                    1 # 0 = fifo, 1 = FR-FCFS (defaul)
-gpgpu_dram_partition_queues              8:8:8:8 # i2$:$2d:d2$:$2i
-l2_ideal                               0 # Use a ideal L2 cache that always hit
-gpgpu_cache:dl2     64:128:16,L:B:m:W:L,A:1024:1024,4:0,32 # unified banked L2 data cache config  {<nsets>:<bsize>:<assoc>,<rep>:<wr>:<alloc>:<wr_alloc>,<mshr>:<N>:<merge>,<mq>}
-gpgpu_cache:dl2_texture_only                    0 # L2 cache used for texture only
-gpgpu_n_mem                            4 # number of memory modules (e.g. memory controllers) in gpu
-gpgpu_n_sub_partition_per_mchannel                    2 # number of memory subpartition in each memory module
-gpgpu_n_mem_per_ctrlr                    1 # number of memory chips per memory controller
-gpgpu_memlatency_stat                   14 # track and display latency statistics 0x2 enables MC, 0x4 enables queue logs
-gpgpu_frfcfs_dram_sched_queue_size                   64 # 0 = unlimited (default); # entries per chip
-gpgpu_dram_return_queue_size                  116 # 0 = unlimited (default); # entries per chip
-gpgpu_dram_buswidth                    4 # default = 4 bytes (8 bytes per cycle at DDR)
-gpgpu_dram_burst_length                    8 # Burst length of each DRAM request (default = 4 data bus cycle)
-dram_data_command_freq_ratio                    4 # Frequency ratio between DRAM data bus and command bus (default = 2 times, i.e. DDR)
-gpgpu_dram_timing_opt nbk=16:CCD=2:RRD=6:RCD=12:RAS=28:RP=12:RC=40: CL=12:WL=4:CDLR=5:WR=12:nbkgrp=1:CCDL=0:RTPL=0 # DRAM timing parameters = {nbk:tCCD:tRRD:tRCD:tRAS:tRP:tRC:CL:WL:tCDLR:tWR:nbkgrp:tCCDL:tRTPL}
-rop_latency                          120 # ROP queue latency (default 85)
-dram_latency                         100 # DRAM latency (default 30)
-gpgpu_mem_addr_mapping dramid@8;00000000.00000000.00000000.00000000.0000RRRR.RRRRRRRR.RBBBCCCC.BCCSSSSS # mapping memory address to dram model {dramid@<start bit>;<memory address map>}
-gpgpu_mem_addr_test                    0 # run sweep test to check address mapping for aliased address
-gpgpu_mem_address_mask                    1 # 0 = old addressing mask, 1 = new addressing mask, 2 = new add. mask + flipped bank sel and chip sel bits
-gpuwattch_xml_file  gpuwattch_geforcegtx1080ti.xml # GPUWattch XML file
-power_simulation_enabled                    1 # Turn on power simulator (1=On, 0=Off)
-power_per_cycle_dump                    0 # Dump detailed power output each cycle
-power_trace_enabled                    0 # produce a file for the power trace (1=On, 0=Off)
-power_trace_zlevel                     6 # Compression level of the power trace output log (0=no comp, 9=highest)
-steady_power_levels_enabled                    0 # produce a file for the steady power levels (1=On, 0=Off)
-steady_state_definition                  8:4 # allowed deviation:number of samples
-gpgpu_max_cycle                        0 # terminates gpu simulation early (0 = no limit)
-gpgpu_max_insn                         0 # terminates gpu simulation early (0 = no limit)
-gpgpu_max_cta                          0 # terminates gpu simulation early (0 = no limit)
-gpgpu_runtime_stat                   500 # display runtime statistics such as dram utilization {<freq>:<flag>}
-liveness_message_freq                    1 # Minimum number of seconds between simulation liveness messages (0 = always print)
-gpgpu_flush_l1_cache                    0 # Flush L1 cache at the end of each kernel call
-gpgpu_flush_l2_cache                    0 # Flush L2 cache at the end of each kernel call
-gpgpu_deadlock_detect                    0 # Stop the simulation at deadlock (1=on (default), 0=off)
-gpgpu_ptx_instruction_classification                    0 # if enabled will classify ptx instruction types per kernel (Max 255 kernels now)
-gpgpu_ptx_sim_mode                     0 # Select between Performance (default) or Functional simulation (1)
-gpgpu_clock_domains 1481.0:2962.0:1481.0:2750.0 # Clock Domain Frequencies in MhZ {<Core Clock>:<ICNT Clock>:<L2 Clock>:<DRAM Clock>}
-gpgpu_max_concurrent_kernel                    8 # maximum kernels that can run concurrently on GPU
-gpgpu_cflog_interval                    0 # Interval between each snapshot in control flow logger
-visualizer_enabled                     0 # Turn on visualizer output (1=On, 0=Off)
-visualizer_outputfile                 NULL # Specifies the output log file for visualizer
-visualizer_zlevel                      6 # Compression level of the visualizer output log (0=no comp, 9=highest)
-trace_enabled                          0 # Turn on traces
-trace_components                    none # comma seperated list of traces to enable. Complete list found in trace_streams.tup. Default none
-trace_sampling_core                    0 # The core which is printed using CORE_DPRINTF. Default 0
-trace_sampling_memory_partition                   -1 # The memory partition which is printed using MEMPART_DPRINTF. Default -1 (i.e. all)
-gddr_size                            1MB # Size of GDDR in MB/GB.(GLOBAL_HEAP_START, GLOBAL_HEAP_START + gddr_size) would be used for unmanged memory, (GLOBAL_HEAP_START + gddr_size, GLOBAL_HEAP_START + gddr_size*2) would be used for managed memory. 
-page_table_walk_latency                  100 # Average page table walk latency (in core cycle).
-eviction_policy                        5 # Select page eviction policy
-invalidate_clean                       0 # Should directly invalidate clean pages
-reserve_accessed_page_percent                    0 # Percentage of accessed pages reserved from eviction in hope that they will be accessed in next iteration.
-percentage_of_free_page_buffer                    0 # Percentage of free page buffer to trigger the page eviction.
-page_size                            4KB # GDDR page size, only 4KB/2MB avaliable.
-pcie_bandwidth                  16.0GB/s # PCI-e bandwidth per direction, in GB/s.
-enable_dma                             0 # Enable direct access to CPU memory
-multiply_dma_penalty                    2 # Oversubscription Multiplicative Penalty Factor for Adaptive DMA
-migrate_threshold                      8 # Access counter threshold for migrating the page from cpu to gpu
-sim_prof_enable                        1 # Enable gpgpu-sim profiler
-hardware_prefetch                      3 # Select gpgpu-sim hardware prefetcher
-hwprefetch_oversub                     3 # Select gpgpu-sim hardware prefetcher under over-subscription
-page_fault_latency                 66645 # Average fault latency (in core cycle).
-enable_accurate_simulation                    0 # Enable page fault functional simulation.
-enable_smart_runtime                    0 # Enable access pattern detection, policy engine, and adaptive memory management.
-enable_ptx_file_line_stats                    1 # Turn on PTX source line statistic profiling. (1 = On)
-ptx_line_stats_filename gpgpu_inst_stats.txt # Output file for PTX source line statistics.
-gpgpu_kernel_launch_latency               222150 # Kernel launch latency in cycles. Default: 0
-gpgpu_cdp_enabled                      0 # Turn on CDP
-save_embedded_ptx                      0 # saves ptx files embedded in binary as <n>.ptx
-keep                                   0 # keep intermediate files created by GPGPU-Sim when interfacing with external programs
-gpgpu_ptx_save_converted_ptxplus                    0 # Saved converted ptxplus to a file
-ptx_opcode_latency_int         4,13,4,5,145 # Opcode latencies for integers <ADD,MAX,MUL,MAD,DIV>Default 1,1,19,25,145
-ptx_opcode_latency_fp          4,13,4,5,39 # Opcode latencies for single precision floating points <ADD,MAX,MUL,MAD,DIV>Default 1,1,1,1,30
-ptx_opcode_latency_dp         8,19,8,8,330 # Opcode latencies for double precision floating points <ADD,MAX,MUL,MAD,DIV>Default 8,8,8,8,335
-ptx_opcode_initiation_int            1,2,2,2,8 # Opcode initiation intervals for integers <ADD,MAX,MUL,MAD,DIV>Default 1,1,4,4,32
-ptx_opcode_initiation_fp            1,2,1,1,4 # Opcode initiation intervals for single precision floating points <ADD,MAX,MUL,MAD,DIV>Default 1,1,1,1,5
-ptx_opcode_initiation_dp          1,2,1,1,130 # Opcode initiation intervals for double precision floating points <ADD,MAX,MUL,MAD,DIV>Default 8,8,8,8,130
-cdp_latency         7200,8000,100,12000,1600 # CDP API latency <cudaStreamCreateWithFlags, cudaGetParameterBufferV2_init_perWarp, cudaGetParameterBufferV2_perKernel, cudaLaunchDeviceV2_init_perWarp, cudaLaunchDevicV2_perKernel>Default 7200,8000,100,12000,1600
DRAM Timing Options:
nbk                                    16 # number of banks
CCD                                     2 # column to column delay
RRD                                     6 # minimal delay between activation of rows in different banks
RCD                                    12 # row to column delay
RAS                                    28 # time needed to activate row
RP                                     12 # time needed to precharge (deactivate) row
RC                                     40 # row cycle time
CDLR                                    5 # switching from write to read (changes tWTR)
WR                                     12 # last data-in to row precharge
CL                                     12 # CAS latency
WL                                      4 # Write latency
nbkgrp                                  1 # number of bank groups
CCDL                                    0 # column to column delay between accesses to different bank groups
RTPL                                    0 # read to precharge delay between accesses to different bank groups
Total number of memory sub partition = 8
addr_dec_mask[CHIP]  = 0000000000000300 	high:10 low:8
addr_dec_mask[BK]    = 000000000001c080 	high:17 low:7
addr_dec_mask[ROW]   = 000000003ffe0000 	high:30 low:17
addr_dec_mask[COL]   = 0000000000003c7f 	high:14 low:0
addr_dec_mask[BURST] = 000000000000001f 	high:5 low:0
sub_partition_id_mask = 0000000000000080
GPGPU-Sim uArch: clock freqs: 1481000000.000000:2962000000.000000:1481000000.000000:2750000000.000000
GPGPU-Sim uArch: clock periods: 0.00000000067521944632:0.00000000033760972316:0.00000000067521944632:0.00000000036363636364
*** Initializing Memory Statistics ***
GPGPU-Sim uArch: interconnect node map (shaderID+MemID to icntID)
GPGPU-Sim uArch: Memory nodes ID start from index: 28
GPGPU-Sim uArch:    0   1   2   3   4   5   6
GPGPU-Sim uArch:    7   8   9  10  11  12  13
GPGPU-Sim uArch:   14  15  16  17  18  19  20
GPGPU-Sim uArch:   21  22  23  24  25  26  27
GPGPU-Sim uArch:   28  29  30  31  32  33  34
GPGPU-Sim uArch:   35  36  37  38  39  40  41
GPGPU-Sim uArch:   42  43  44  45  46  47  48
GPGPU-Sim uArch:   49
GPGPU-Sim uArch: interconnect node reverse map (icntID to shaderID+MemID)
GPGPU-Sim uArch: Memory nodes start from ID: 28
GPGPU-Sim uArch:    0   1   2   3   4   5   6
GPGPU-Sim uArch:    7   8   9  10  11  12  13
GPGPU-Sim uArch:   14  15  16  17  18  19  20
GPGPU-Sim uArch:   21  22  23  24  25  26  27
GPGPU-Sim uArch:   28  29  30  31  32  33  34
GPGPU-Sim uArch:   35  36  37  38  39  40  41
GPGPU-Sim uArch:   42  43  44  45  46  47  48
GPGPU-Sim uArch:   49
f5cdbe38ef3c4de23b868d60345b8c45  /root/uvmsmart/benchmarks/Managed/2DCONV/2dconv
GPGPU-Sim uArch: performance model initialization complete.
GPGPU-Sim PTX: __cudaRegisterFatBinary, fat_cubin_handle = 1, filename=default
self exe links to: /root/uvmsmart/benchmarks/Managed/2DCONV/2dconv
Running md5sum using "md5sum /root/uvmsmart/benchmarks/Managed/2DCONV/2dconv "
Parsing file _cuobjdump_complete_output_6YMIZF
######### cuobjdump parser ########
## Adding new section ELF
Adding arch: sm_20
Adding identifier: default
## Adding new section ELF
Adding arch: sm_20
Adding identifier: default
## Adding new section PTX
Adding ptx filename: _cuobjdump_1.ptx
Adding arch: sm_20
Adding identifier: default
Done parsing!!!
GPGPU-Sim PTX: __cudaRegisterFunction _Z20Convolution2D_kernelPfS_ : hostFun 0x0x400f19, fat_cubin_handle = 1
GPGPU-Sim PTX: instruction assembly for function '_Z20Convolution2D_kernelPfS_'...   done.
GPGPU-Sim PTX: finding reconvergence points for '_Z20Convolution2D_kernelPfS_'...
GPGPU-Sim PTX: Finding dominators for '_Z20Convolution2D_kernelPfS_'...
GPGPU-Sim PTX: Finding immediate dominators for '_Z20Convolution2D_kernelPfS_'...
GPGPU-Sim PTX: Finding postdominators for '_Z20Convolution2D_kernelPfS_'...
GPGPU-Sim PTX: Finding immediate postdominators for '_Z20Convolution2D_kernelPfS_'...
GPGPU-Sim PTX: pre-decoding instructions for '_Z20Convolution2D_kernelPfS_'...
GPGPU-Sim PTX: reconvergence points for _Z20Convolution2D_kernelPfS_...
GPGPU-Sim PTX:  1 (potential) branch divergence @  PC=0x088 (_1.ptx:42) @!%p7 bra BB0_2;
GPGPU-Sim PTX:    immediate post dominator      @  PC=0x180 (_1.ptx:77) ret;
GPGPU-Sim PTX:  2 (potential) branch divergence @  PC=0x090 (_1.ptx:43) bra.uni BB0_1;
GPGPU-Sim PTX:    immediate post dominator      @  PC=0x098 (_1.ptx:46) cvta.to.global.u64 %rd3, %rd1;
GPGPU-Sim PTX: ... end of reconvergence points for _Z20Convolution2D_kernelPfS_
GPGPU-Sim PTX: ... done pre-decoding instructions for '_Z20Convolution2D_kernelPfS_'.
GPGPU-Sim PTX: finished parsing EMBEDDED .ptx file _1.ptx
Adding _cuobjdump_1.ptx with cubin handle 1
GPGPU-Sim PTX: extracting embedded .ptx to temporary file "_ptx_JqWdP8"
Running: cat _ptx_JqWdP8 | sed 's/.version 1.5/.version 1.4/' | sed 's/, texmode_independent//' | sed 's/\(\.extern \.const\[1\] .b8 \w\+\)\[\]/\1\[1\]/' | sed 's/const\[.\]/const\[0\]/g' > _ptx2_jMmKEB
GPGPU-Sim PTX: generating ptxinfo using "$CUDA_INSTALL_PATH/bin/ptxas --gpu-name=sm_20 -v _ptx2_jMmKEB --output-file  /dev/null 2> _ptx_JqWdP8info"
GPGPU-Sim PTX: Kernel '_Z20Convolution2D_kernelPfS_' : regs=16, lmem=0, smem=0, cmem=80
GPGPU-Sim PTX: removing ptxinfo using "rm -f _ptx_JqWdP8 _ptx2_jMmKEB _ptx_JqWdP8info"
GPGPU-Sim PTX: loading globals with explicit initializers... 
GPGPU-Sim PTX: finished loading globals (0 bytes total).
GPGPU-Sim PTX: loading constants with explicit initializers...  done.

GPGPU-Sim PTX: cudaLaunch for 0x0x400f19 (mode=performance simulation) on stream 0
GPGPU-Sim PTX: pushing kernel '_Z20Convolution2D_kernelPfS_' to stream 0, gridDim= (8,32,1) blockDim = (32,8,1) 
GPGPU-Sim uArch: Shader 1 bind to kernel 1 '_Z20Convolution2D_kernelPfS_'
GPGPU-Sim uArch: CTA/core = 8, limited by: threads
GPGPU-Sim uArch: Shader 2 bind to kernel 1 '_Z20Convolution2D_kernelPfS_'
GPGPU-Sim uArch: Shader 3 bind to kernel 1 '_Z20Convolution2D_kernelPfS_'
GPGPU-Sim uArch: Shader 4 bind to kernel 1 '_Z20Convolution2D_kernelPfS_'
GPGPU-Sim uArch: Shader 5 bind to kernel 1 '_Z20Convolution2D_kernelPfS_'
GPGPU-Sim uArch: Shader 6 bind to kernel 1 '_Z20Convolution2D_kernelPfS_'
GPGPU-Sim uArch: Shader 7 bind to kernel 1 '_Z20Convolution2D_kernelPfS_'
GPGPU-Sim uArch: Shader 8 bind to kernel 1 '_Z20Convolution2D_kernelPfS_'
GPGPU-Sim uArch: Shader 9 bind to kernel 1 '_Z20Convolution2D_kernelPfS_'
GPGPU-Sim uArch: Shader 10 bind to kernel 1 '_Z20Convolution2D_kernelPfS_'
GPGPU-Sim uArch: Shader 11 bind to kernel 1 '_Z20Convolution2D_kernelPfS_'
GPGPU-Sim uArch: Shader 12 bind to kernel 1 '_Z20Convolution2D_kernelPfS_'
GPGPU-Sim uArch: Shader 13 bind to kernel 1 '_Z20Convolution2D_kernelPfS_'
GPGPU-Sim uArch: Shader 14 bind to kernel 1 '_Z20Convolution2D_kernelPfS_'
GPGPU-Sim uArch: Shader 15 bind to kernel 1 '_Z20Convolution2D_kernelPfS_'
GPGPU-Sim uArch: Shader 16 bind to kernel 1 '_Z20Convolution2D_kernelPfS_'
GPGPU-Sim uArch: Shader 17 bind to kernel 1 '_Z20Convolution2D_kernelPfS_'
GPGPU-Sim uArch: Shader 18 bind to kernel 1 '_Z20Convolution2D_kernelPfS_'
GPGPU-Sim uArch: Shader 19 bind to kernel 1 '_Z20Convolution2D_kernelPfS_'
GPGPU-Sim uArch: Shader 20 bind to kernel 1 '_Z20Convolution2D_kernelPfS_'
GPGPU-Sim uArch: Shader 21 bind to kernel 1 '_Z20Convolution2D_kernelPfS_'
GPGPU-Sim uArch: Shader 22 bind to kernel 1 '_Z20Convolution2D_kernelPfS_'
GPGPU-Sim uArch: Shader 23 bind to kernel 1 '_Z20Convolution2D_kernelPfS_'
GPGPU-Sim uArch: Shader 24 bind to kernel 1 '_Z20Convolution2D_kernelPfS_'
GPGPU-Sim uArch: Shader 25 bind to kernel 1 '_Z20Convolution2D_kernelPfS_'
GPGPU-Sim uArch: Shader 26 bind to kernel 1 '_Z20Convolution2D_kernelPfS_'
GPGPU-Sim uArch: Shader 27 bind to kernel 1 '_Z20Convolution2D_kernelPfS_'
GPGPU-Sim uArch: Shader 0 bind to kernel 1 '_Z20Convolution2D_kernelPfS_'
GPGPU-Sim uArch: Shader 1 bind to kernel 1 '_Z20Convolution2D_kernelPfS_'
GPGPU-Sim uArch: Shader 2 bind to kernel 1 '_Z20Convolution2D_kernelPfS_'
GPGPU-Sim uArch: Shader 3 bind to kernel 1 '_Z20Convolution2D_kernelPfS_'
GPGPU-Sim uArch: Shader 4 bind to kernel 1 '_Z20Convolution2D_kernelPfS_'
GPGPU-Sim uArch: Shader 5 bind to kernel 1 '_Z20Convolution2D_kernelPfS_'
GPGPU-Sim uArch: Shader 6 bind to kernel 1 '_Z20Convolution2D_kernelPfS_'
GPGPU-Sim uArch: Shader 7 bind to kernel 1 '_Z20Convolution2D_kernelPfS_'
GPGPU-Sim uArch: Shader 8 bind to kernel 1 '_Z20Convolution2D_kernelPfS_'
GPGPU-Sim uArch: Shader 9 bind to kernel 1 '_Z20Convolution2D_kernelPfS_'
GPGPU-Sim uArch: Shader 10 bind to kernel 1 '_Z20Convolution2D_kernelPfS_'
GPGPU-Sim uArch: Shader 11 bind to kernel 1 '_Z20Convolution2D_kernelPfS_'
GPGPU-Sim uArch: Shader 12 bind to kernel 1 '_Z20Convolution2D_kernelPfS_'
GPGPU-Sim uArch: Shader 21 bind to kernel 1 '_Z20Convolution2D_kernelPfS_'
GPGPU-Sim uArch: Shader 22 bind to kernel 1 '_Z20Convolution2D_kernelPfS_'
GPGPU-Sim uArch: Shader 23 bind to kernel 1 '_Z20Convolution2D_kernelPfS_'
GPGPU-Sim uArch: Shader 24 bind to kernel 1 '_Z20Convolution2D_kernelPfS_'
GPGPU-Sim uArch: Shader 25 bind to kernel 1 '_Z20Convolution2D_kernelPfS_'
GPGPU-Sim uArch: Shader 26 bind to kernel 1 '_Z20Convolution2D_kernelPfS_'
GPGPU-Sim uArch: Shader 27 bind to kernel 1 '_Z20Convolution2D_kernelPfS_'
GPGPU-Sim uArch: Shader 0 bind to kernel 1 '_Z20Convolution2D_kernelPfS_'
Destroy streams for kernel 1: size 0
kernel_name = _Z20Convolution2D_kernelPfS_ 
kernel_launch_uid = 1 
gpu_sim_cycle = 335156
gpu_sim_insn = 3116148
gpu_ipc =       9.2976
gpu_tot_sim_cycle = 557306
gpu_tot_sim_insn = 3116148
gpu_tot_ipc =       5.5914
gpu_tot_issued_cta = 256
max_total_param_size = 0
gpu_stall_dramfull = 31
gpu_stall_icnt2sh    = 18106
partiton_reqs_in_parallel = 2681217
partiton_reqs_in_parallel_total    = 0
partiton_level_parallism =       7.9999
partiton_level_parallism_total  =       4.8110
partiton_reqs_in_parallel_util = 2681217
partiton_reqs_in_parallel_util_total    = 0
gpu_sim_cycle_parition_util = 335156
gpu_tot_sim_cycle_parition_util    = 0
partiton_level_parallism_util =       7.9999
partiton_level_parallism_util_total  =       7.9999
partiton_replys_in_parallel = 31128
partiton_replys_in_parallel_total    = 0
L2_BW  =       8.8032 GB/Sec
L2_BW_total  =       5.2941 GB/Sec
gpu_total_sim_rate=17311

========= Core cache stats =========
L1I_cache:
	L1I_total_cache_accesses = 50976
	L1I_total_cache_misses = 2458
	L1I_total_cache_miss_rate = 0.0482
	L1I_total_cache_pending_hits = 0
	L1I_total_cache_reservation_fails = 6851
L1D_cache:
	L1D_cache_core[0]: Access = 0, Miss = 0, Miss_rate = -nan, Pending_hits = 0, Reservation_fails = 0
	L1D_cache_core[1]: Access = 0, Miss = 0, Miss_rate = -nan, Pending_hits = 0, Reservation_fails = 0
	L1D_cache_core[2]: Access = 0, Miss = 0, Miss_rate = -nan, Pending_hits = 0, Reservation_fails = 0
	L1D_cache_core[3]: Access = 0, Miss = 0, Miss_rate = -nan, Pending_hits = 0, Reservation_fails = 0
	L1D_cache_core[4]: Access = 0, Miss = 0, Miss_rate = -nan, Pending_hits = 0, Reservation_fails = 0
	L1D_cache_core[5]: Access = 0, Miss = 0, Miss_rate = -nan, Pending_hits = 0, Reservation_fails = 0
	L1D_cache_core[6]: Access = 0, Miss = 0, Miss_rate = -nan, Pending_hits = 0, Reservation_fails = 0
	L1D_cache_core[7]: Access = 0, Miss = 0, Miss_rate = -nan, Pending_hits = 0, Reservation_fails = 0
	L1D_cache_core[8]: Access = 0, Miss = 0, Miss_rate = -nan, Pending_hits = 0, Reservation_fails = 0
	L1D_cache_core[9]: Access = 0, Miss = 0, Miss_rate = -nan, Pending_hits = 0, Reservation_fails = 0
	L1D_cache_core[10]: Access = 0, Miss = 0, Miss_rate = -nan, Pending_hits = 0, Reservation_fails = 0
	L1D_cache_core[11]: Access = 0, Miss = 0, Miss_rate = -nan, Pending_hits = 0, Reservation_fails = 0
	L1D_cache_core[12]: Access = 0, Miss = 0, Miss_rate = -nan, Pending_hits = 0, Reservation_fails = 0
	L1D_cache_core[13]: Access = 0, Miss = 0, Miss_rate = -nan, Pending_hits = 0, Reservation_fails = 0
	L1D_cache_core[14]: Access = 0, Miss = 0, Miss_rate = -nan, Pending_hits = 0, Reservation_fails = 0
	L1D_cache_core[15]: Access = 0, Miss = 0, Miss_rate = -nan, Pending_hits = 0, Reservation_fails = 0
	L1D_cache_core[16]: Access = 0, Miss = 0, Miss_rate = -nan, Pending_hits = 0, Reservation_fails = 0
	L1D_cache_core[17]: Access = 0, Miss = 0, Miss_rate = -nan, Pending_hits = 0, Reservation_fails = 0
	L1D_cache_core[18]: Access = 0, Miss = 0, Miss_rate = -nan, Pending_hits = 0, Reservation_fails = 0
	L1D_cache_core[19]: Access = 0, Miss = 0, Miss_rate = -nan, Pending_hits = 0, Reservation_fails = 0
	L1D_cache_core[20]: Access = 0, Miss = 0, Miss_rate = -nan, Pending_hits = 0, Reservation_fails = 0
	L1D_cache_core[21]: Access = 0, Miss = 0, Miss_rate = -nan, Pending_hits = 0, Reservation_fails = 0
	L1D_cache_core[22]: Access = 0, Miss = 0, Miss_rate = -nan, Pending_hits = 0, Reservation_fails = 0
	L1D_cache_core[23]: Access = 0, Miss = 0, Miss_rate = -nan, Pending_hits = 0, Reservation_fails = 0
	L1D_cache_core[24]: Access = 0, Miss = 0, Miss_rate = -nan, Pending_hits = 0, Reservation_fails = 0
	L1D_cache_core[25]: Access = 0, Miss = 0, Miss_rate = -nan, Pending_hits = 0, Reservation_fails = 0
	L1D_cache_core[26]: Access = 0, Miss = 0, Miss_rate = -nan, Pending_hits = 0, Reservation_fails = 0
	L1D_cache_core[27]: Access = 0, Miss = 0, Miss_rate = -nan, Pending_hits = 0, Reservation_fails = 0
	L1D_total_cache_accesses = 0
	L1D_total_cache_misses = 0
	L1D_total_cache_pending_hits = 0
	L1D_total_cache_reservation_fails = 0
	L1D_cache_data_port_util = 0.000
	L1D_cache_fill_port_util = 0.000
L1C_cache:
	L1C_total_cache_accesses = 4096
	L1C_total_cache_misses = 1792
	L1C_total_cache_miss_rate = 0.4375
	L1C_total_cache_pending_hits = 0
	L1C_total_cache_reservation_fails = 5054
L1T_cache:
	L1T_total_cache_accesses = 0
	L1T_total_cache_misses = 0
	L1T_total_cache_pending_hits = 0
	L1T_total_cache_reservation_fails = 0

Total_core_cache_stats:
	Total_core_cache_stats_breakdown[GLOBAL_ACC_R][HIT] = 0
	Total_core_cache_stats_breakdown[GLOBAL_ACC_R][HIT_RESERVED] = 0
	Total_core_cache_stats_breakdown[GLOBAL_ACC_R][MISS] = 0
	Total_core_cache_stats_breakdown[GLOBAL_ACC_R][RESERVATION_FAIL] = 0
	Total_core_cache_stats_breakdown[LOCAL_ACC_R][HIT] = 0
	Total_core_cache_stats_breakdown[LOCAL_ACC_R][HIT_RESERVED] = 0
	Total_core_cache_stats_breakdown[LOCAL_ACC_R][MISS] = 0
	Total_core_cache_stats_breakdown[LOCAL_ACC_R][RESERVATION_FAIL] = 0
	Total_core_cache_stats_breakdown[CONST_ACC_R][HIT] = 2304
	Total_core_cache_stats_breakdown[CONST_ACC_R][HIT_RESERVED] = 0
	Total_core_cache_stats_breakdown[CONST_ACC_R][MISS] = 1792
	Total_core_cache_stats_breakdown[CONST_ACC_R][RESERVATION_FAIL] = 5054
	Total_core_cache_stats_breakdown[TEXTURE_ACC_R][HIT] = 0
	Total_core_cache_stats_breakdown[TEXTURE_ACC_R][HIT_RESERVED] = 0
	Total_core_cache_stats_breakdown[TEXTURE_ACC_R][MISS] = 0
	Total_core_cache_stats_breakdown[TEXTURE_ACC_R][RESERVATION_FAIL] = 0
	Total_core_cache_stats_breakdown[GLOBAL_ACC_W][HIT] = 0
	Total_core_cache_stats_breakdown[GLOBAL_ACC_W][HIT_RESERVED] = 0
	Total_core_cache_stats_breakdown[GLOBAL_ACC_W][MISS] = 0
	Total_core_cache_stats_breakdown[GLOBAL_ACC_W][RESERVATION_FAIL] = 0
	Total_core_cache_stats_breakdown[LOCAL_ACC_W][HIT] = 0
	Total_core_cache_stats_breakdown[LOCAL_ACC_W][HIT_RESERVED] = 0
	Total_core_cache_stats_breakdown[LOCAL_ACC_W][MISS] = 0
	Total_core_cache_stats_breakdown[LOCAL_ACC_W][RESERVATION_FAIL] = 0
	Total_core_cache_stats_breakdown[L1_WRBK_ACC][HIT] = 0
	Total_core_cache_stats_breakdown[L1_WRBK_ACC][HIT_RESERVED] = 0
	Total_core_cache_stats_breakdown[L1_WRBK_ACC][MISS] = 0
	Total_core_cache_stats_breakdown[L1_WRBK_ACC][RESERVATION_FAIL] = 0
	Total_core_cache_stats_breakdown[L2_WRBK_ACC][HIT] = 0
	Total_core_cache_stats_breakdown[L2_WRBK_ACC][HIT_RESERVED] = 0
	Total_core_cache_stats_breakdown[L2_WRBK_ACC][MISS] = 0
	Total_core_cache_stats_breakdown[L2_WRBK_ACC][RESERVATION_FAIL] = 0
	Total_core_cache_stats_breakdown[INST_ACC_R][HIT] = 48518
	Total_core_cache_stats_breakdown[INST_ACC_R][HIT_RESERVED] = 0
	Total_core_cache_stats_breakdown[INST_ACC_R][MISS] = 2458
	Total_core_cache_stats_breakdown[INST_ACC_R][RESERVATION_FAIL] = 6851
	Total_core_cache_stats_breakdown[L1_WR_ALLOC_R][HIT] = 0
	Total_core_cache_stats_breakdown[L1_WR_ALLOC_R][HIT_RESERVED] = 0
	Total_core_cache_stats_breakdown[L1_WR_ALLOC_R][MISS] = 0
	Total_core_cache_stats_breakdown[L1_WR_ALLOC_R][RESERVATION_FAIL] = 0
	Total_core_cache_stats_breakdown[L2_WR_ALLOC_R][HIT] = 0
	Total_core_cache_stats_breakdown[L2_WR_ALLOC_R][HIT_RESERVED] = 0
	Total_core_cache_stats_breakdown[L2_WR_ALLOC_R][MISS] = 0
	Total_core_cache_stats_breakdown[L2_WR_ALLOC_R][RESERVATION_FAIL] = 0
	Total_core_cache_stats_breakdown[CONST_ACC_R][TOTAL_ACCESS] = 4096
	Total_core_cache_stats_breakdown[INST_ACC_R][TOTAL_ACCESS] = 50976
Shader 0 warp_id issue ditsribution:
warp_id:
0, 1, 2, 3, 4, 5, 6, 7, 8, 9, 10, 11, 12, 13, 14, 15, 16, 17, 18, 19, 20, 21, 22, 23, 24, 25, 26, 27, 28, 29, 30, 31, 32, 33, 34, 35, 36, 37, 38, 39, 40, 41, 42, 43, 44, 45, 46, 47, 48, 49, 50, 51, 52, 53, 54, 55, 56, 57, 58, 59, 60, 61, 62, 63, 
distro:
112, 112, 112, 112, 112, 112, 112, 80, 56, 56, 56, 56, 56, 56, 56, 56, 56, 56, 56, 56, 56, 56, 56, 56, 56, 56, 56, 56, 56, 56, 56, 56, 56, 56, 56, 56, 56, 56, 56, 56, 56, 56, 56, 56, 56, 56, 56, 56, 56, 56, 56, 56, 56, 56, 56, 56, 56, 56, 56, 56, 56, 56, 56, 56, 
gpgpu_n_tot_thrd_icount = 3195904
gpgpu_n_tot_w_icount = 99872
gpgpu_n_stall_shd_mem = 17154
gpgpu_n_mem_read_local = 0
gpgpu_n_mem_write_local = 0
gpgpu_n_mem_read_global = 28956
gpgpu_n_mem_write_global = 2032
gpgpu_n_mem_texture = 0
gpgpu_n_mem_const = 28
gpgpu_n_load_insn  = 580644
gpgpu_n_store_insn = 64516
gpgpu_n_shmem_insn = 0
gpgpu_n_tex_insn = 0
gpgpu_n_const_mem_insn = 0
gpgpu_n_param_mem_insn = 131072
gpgpu_n_shmem_bkconflict = 0
gpgpu_n_cache_bkconflict = 0
gpgpu_n_intrawarp_mshr_merge = 0
gpgpu_n_cmem_portconflict = 5054
gpgpu_stall_shd_mem[c_mem][bk_conf] = 5054
gpgpu_stall_shd_mem[c_mem][mshr_rc] = 0
gpgpu_stall_shd_mem[c_mem][icnt_rc] = 0
gpgpu_stall_shd_mem[c_mem][data_port_stall] = 0
gpgpu_stall_shd_mem[t_mem][mshr_rc] = 0
gpgpu_stall_shd_mem[t_mem][icnt_rc] = 0
gpgpu_stall_shd_mem[t_mem][data_port_stall] = 0
gpgpu_stall_shd_mem[s_mem][bk_conf] = 0
gpgpu_stall_shd_mem[gl_mem][bk_conf] = 0
gpgpu_stall_shd_mem[gl_mem][coal_stall] = 10668
gpgpu_stall_shd_mem[gl_mem][data_port_stall] = 0
gpgpu_stall_shd_mem[g_mem_ld][mshr_rc] = 0
gpgpu_stall_shd_mem[g_mem_ld][icnt_rc] = 1432
gpgpu_stall_shd_mem[g_mem_ld][wb_icnt_rc] = 0
gpgpu_stall_shd_mem[g_mem_ld][wb_rsrv_fail] = 0
gpgpu_stall_shd_mem[g_mem_st][mshr_rc] = 0
gpgpu_stall_shd_mem[g_mem_st][icnt_rc] = 0
gpgpu_stall_shd_mem[g_mem_st][wb_icnt_rc] = 0
gpgpu_stall_shd_mem[g_mem_st][wb_rsrv_fail] = 0
gpgpu_stall_shd_mem[l_mem_ld][mshr_rc] = 0
gpgpu_stall_shd_mem[l_mem_ld][icnt_rc] = 0
gpgpu_stall_shd_mem[l_mem_ld][wb_icnt_rc] = 0
gpgpu_stall_shd_mem[l_mem_ld][wb_rsrv_fail] = 0
gpgpu_stall_shd_mem[l_mem_st][mshr_rc] = 0
gpgpu_stall_shd_mem[l_mem_st][icnt_rc] = 0
gpgpu_stall_shd_mem[l_mem_ld][wb_icnt_rc] = 0
gpgpu_stall_shd_mem[l_mem_ld][wb_rsrv_fail] = 0
gpu_reg_bank_conflict_stalls = 0
Warp Occupancy Distribution:
Stall:7125	W0_Idle:8821145	W0_Scoreboard:9842906	W1:0	W2:0	W3:0	W4:0	W5:0	W6:0	W7:0	W8:0	W9:0	W10:0	W11:0	W12:0	W13:0	W14:0	W15:0	W16:0	W17:0	W18:0	W19:0	W20:0	W21:0	W22:0	W23:0	W24:0	W25:0	W26:0	W27:0	W28:0	W29:0	W30:0	W31:15240	W32:84632
traffic_breakdown_coretomem[CONST_ACC_R] = 224 {8:28,}
traffic_breakdown_coretomem[GLOBAL_ACC_R] = 231648 {8:28956,}
traffic_breakdown_coretomem[GLOBAL_ACC_W] = 276352 {136:2032,}
traffic_breakdown_coretomem[INST_ACC_R] = 896 {8:112,}
traffic_breakdown_memtocore[CONST_ACC_R] = 2016 {72:28,}
traffic_breakdown_memtocore[GLOBAL_ACC_R] = 2913888 {40:10668,136:18288,}
traffic_breakdown_memtocore[GLOBAL_ACC_W] = 16256 {8:2032,}
traffic_breakdown_memtocore[INST_ACC_R] = 15232 {136:112,}
maxmrqlatency = 101 
maxdqlatency = 0 
maxmflatency = 184193 
averagemflatency = 22882 
max_icnt2mem_latency = 183949 
max_icnt2sh_latency = 557305 
mrq_lat_table:1105 	382 	303 	468 	1402 	1426 	1031 	0 	0 	0 	0 	0 	0 	0 	0 	0 	0 	0 	0 	0 	0 	0 	0 	0 	0 	0 	0 	0 	0 	0 	0 	0 	
dq_lat_table:0 	0 	0 	0 	0 	0 	0 	0 	0 	0 	0 	0 	0 	0 	0 	0 	0 	0 	0 	0 	0 	0 	0 	0 	0 	0 	0 	0 	0 	0 	0 	0 	
mf_lat_table:0 	0 	0 	0 	0 	0 	0 	22011 	424 	9 	45 	237 	563 	793 	828 	1282 	2653 	2171 	0 	0 	0 	0 	0 	0 	0 	0 	0 	0 	0 	0 	0 	0 	
icnt2mem_lat_table:0 	0 	21849 	12 	16 	0 	679 	0 	0 	0 	45 	237 	608 	748 	828 	1282 	2653 	2171 	0 	0 	0 	0 	0 	0 	
icnt2sh_lat_table:0 	0 	22113 	6666 	205 	0 	0 	0 	0 	0 	0 	0 	0 	0 	0 	0 	0 	0 	1656 	376 	0 	0 	0 	0 	
mf_lat_pw_table:0 	0 	0 	0 	0 	0 	0 	126 	4 	0 	2 	2 	6 	8 	19 	28 	23 	50 	0 	0 	0 	0 	0 	0 	0 	0 	0 	0 	0 	0 	0 	0 	
maximum concurrent accesses to same row:
dram[0]:        22        22        24        24        24        24        16        16        32        32        16        16        24        24        32        32 
dram[1]:        22        22        24        24        24        24        16        16        32        32        16        16        24        24        32        32 
dram[2]:        22        22        24        24        24        24        16        16        32        32        16        16        24        24        32        32 
dram[3]:        22        22        24        24        24        24        16        16        32        32        16        16        24        24        32        32 
maximum service time to same row:
dram[0]:     80758     80757    140671    140673    129043    129042     70334     70335     70336     70335     58707     58708    162909    162910    173329    173330 
dram[1]:     80758     80757    140671    140673    129042    129043     70334     70335     70335     70336     58708     58707    162909    162910    173329    173330 
dram[2]:     80758     80757    140672    140672    129042    129043     70334     70335     70336     70335     58707     58708    162909    162910    173329    173330 
dram[3]:     80758     80756    140672    140672    129042    129044     70334     70335     70336     70335     58707     58708    162909    162910    173329    173330 
average row accesses per activate:
dram[0]: 13.714286 13.571428 19.200001 19.200001 16.000000 16.000000 10.666667 10.666667 16.000000 16.000000  8.727273  8.727273 13.714286 13.714286 13.428572 13.428572 
dram[1]: 13.571428 13.571428 19.200001 19.200001 16.000000 16.000000 10.666667 10.666667 16.000000 16.000000  8.727273  8.727273 13.714286 13.714286 13.428572 13.428572 
dram[2]: 18.799999 18.799999 19.200001 19.200001 16.000000 16.000000 10.666667 10.666667 16.000000 16.000000  8.727273  8.727273 13.714286 13.714286 13.428572 13.428572 
dram[3]: 18.799999 18.799999 19.200001 19.200001 16.000000 16.000000 10.666667 10.666667 16.000000 16.000000  8.727273  8.727273 13.714286 13.714286 13.428572 13.428572 
average row locality = 6117/456 = 13.414474
number of total memory accesses made:
dram[0]:         0         0         0         0         0         0         0         0         0         0         0         0         0         0         0         0 
dram[1]:         0         0         0         0         0         0         0         0         0         0         0         0         0         0         0         0 
dram[2]:         0         0         0         0         0         0         0         0         0         0         0         0         0         0         0         0 
dram[3]:         0         0         0         0         0         0         0         0         0         0         0         0         0         0         0         0 
total accesses: 0
min_bank_accesses = 0!
min_chip_accesses = 0!
number of total read accesses:
dram[0]:        65        64        64        64        64        64        64        64        64        64        64        64        64        64        63        63 
dram[1]:        64        64        64        64        64        64        64        64        64        64        64        64        64        64        63        63 
dram[2]:        63        63        64        64        64        64        64        64        64        64        64        64        64        64        63        63 
dram[3]:        63        63        64        64        64        64        64        64        64        64        64        64        64        64        63        63 
total reads: 4085
bank skew: 65/63 = 1.03
chip skew: 1023/1020 = 1.00
number of total write accesses:
dram[0]:        31        31        32        32        32        32        32        32        32        32        32        32        32        32        31        31 
dram[1]:        31        31        32        32        32        32        32        32        32        32        32        32        32        32        31        31 
dram[2]:        31        31        32        32        32        32        32        32        32        32        32        32        32        32        31        31 
dram[3]:        31        31        32        32        32        32        32        32        32        32        32        32        32        32        31        31 
total reads: 2032
bank skew: 32/31 = 1.03
chip skew: 508/508 = 1.00
average mf latency per bank:
dram[0]:     112121    113365    123255    123384    149219    149353    139924    140059    148979    149105    131658    131789     69642     69784     76127     76289
dram[1]:     113344    113363    123376    123399    149343    149361    140034    140050    149092    149118    131789    131804     69767     69782     76253     76276
dram[2]:     114564    114580    123392    123404    149342    149345    140026    140044    149111    149121    131789    131800     69779     69790     76247     76254
dram[3]:     114563     92664    123378     99580    149330    112400    140034    107126    149098    115070    131779    102124     69773     53947     76245     59294
maximum mf latency per bank:
dram[0]:     181595    181568    173759    173747    178970    178956    184193    184178    184182    184163    183919    183912    178995    178995    173766    173745
dram[1]:     181581    181567    173744    173739    178952    178953    184175    184176    184160    184160    183920    183905    178992    178995    173743    173739
dram[2]:     181566    181578    173744    173749    178954    178953    184175    184176    184158    184165    183916    183906    178992    178994    173743    173740
dram[3]:     181574    181588    173740    173754    178950    178956    184173    184178    184152    184166    183918    183912    178991    178992    173738    173746
Memory Partition 0: 
Cache L2_bank_000:
MSHR contents
MSHR: tag=0xc007f800, atomic=0 1 entries : 0x7cf0d3b1dbb0 :  mf: uid= 99990, sid25:w06, part=0, addr=0xc007f800, load , size=128, unknown  status = IN_PARTITION_DRAM (557305), 

Cache L2_bank_001:
MSHR contents
MSHR: tag=0xc007f880, atomic=0 1 entries : 0x7cf0cc9f7b60 :  mf: uid= 99991, sid26:w06, part=0, addr=0xc007f880, load , size=128, unknown  status = IN_PARTITION_DRAM (557305), 

In Dram Latency Queue (total = 0): 
DRAM[0]: 16 bks, busW=4 BL=8 CL=12, tRRD=2 tCCD=6, tRCD=12 tRAS=28 tRP=12 tRC=40
n_cmd=622334 n_nop=615980 n_act=126 n_pre=110 n_req=1531 n_rd=4086 n_write=2032 bw_util=0.01966
n_activity=19107 dram_eff=0.6404
bk0: 260a 620481i bk1: 256a 620226i bk2: 256a 620465i bk3: 256a 620192i bk4: 256a 620425i bk5: 256a 620175i bk6: 256a 620405i bk7: 256a 620131i bk8: 256a 620476i bk9: 256a 620190i bk10: 256a 620322i bk11: 256a 620050i bk12: 256a 620448i bk13: 256a 620173i bk14: 250a 620512i bk15: 248a 620187i 
dram_util_bins: 0 0 0 0 0 0 0 0 0 0
dram_eff_bins: 0 0 0 0 0 0 0 0 0 0
mrqq: max=17 avg=0.137221
Memory Partition 1: 
Cache L2_bank_002:
MSHR contents
MSHR: tag=0xc007f900, atomic=0 1 entries : 0x7cf0d2f94690 :  mf: uid= 99992, sid27:w06, part=1, addr=0xc007f900, load , size=128, unknown  status = IN_PARTITION_DRAM (557305), 

Cache L2_bank_003:
MSHR contents
MSHR: tag=0xc007f980, atomic=0 1 entries : 0x7cf0cfc8f790 :  mf: uid= 99993, sid00:w06, part=1, addr=0xc007f980, load , size=128, unknown  status = IN_PARTITION_DRAM (557305), 

In Dram Latency Queue (total = 0): 
DRAM[1]: 16 bks, busW=4 BL=8 CL=12, tRRD=2 tCCD=6, tRCD=12 tRAS=28 tRP=12 tRC=40
n_cmd=622334 n_nop=615982 n_act=127 n_pre=111 n_req=1530 n_rd=4082 n_write=2032 bw_util=0.01965
n_activity=19092 dram_eff=0.6405
bk0: 256a 620461i bk1: 256a 620213i bk2: 256a 620452i bk3: 256a 620186i bk4: 256a 620455i bk5: 256a 620175i bk6: 256a 620395i bk7: 256a 620133i bk8: 256a 620459i bk9: 256a 620193i bk10: 256a 620331i bk11: 256a 620058i bk12: 256a 620451i bk13: 256a 620190i bk14: 250a 620472i bk15: 248a 620217i 
dram_util_bins: 0 0 0 0 0 0 0 0 0 0
dram_eff_bins: 0 0 0 0 0 0 0 0 0 0
mrqq: max=19 avg=0.137384
Memory Partition 2: 
Cache L2_bank_004:
MSHR contents
MSHR: tag=0xc007fa00, atomic=0 1 entries : 0x7cf0d28ca4b0 :  mf: uid= 99994, sid01:w14, part=2, addr=0xc007fa00, load , size=128, unknown  status = IN_PARTITION_DRAM (557305), 

Cache L2_bank_005:
MSHR contents
MSHR: tag=0xc007fa80, atomic=0 1 entries : 0x7cf0cd0b3bd0 :  mf: uid= 99995, sid02:w14, part=2, addr=0xc007fa80, load , size=128, unknown  status = IN_PARTITION_DRAM (557305), 

In Dram Latency Queue (total = 0): 
DRAM[2]: 16 bks, busW=4 BL=8 CL=12, tRRD=2 tCCD=6, tRCD=12 tRAS=28 tRP=12 tRC=40
n_cmd=622334 n_nop=615996 n_act=124 n_pre=108 n_req=1528 n_rd=4074 n_write=2032 bw_util=0.01962
n_activity=18961 dram_eff=0.6441
bk0: 252a 620518i bk1: 252a 620235i bk2: 256a 620477i bk3: 256a 620195i bk4: 256a 620461i bk5: 256a 620179i bk6: 256a 620400i bk7: 256a 620134i bk8: 256a 620469i bk9: 256a 620191i bk10: 256a 620336i bk11: 256a 620056i bk12: 256a 620439i bk13: 256a 620158i bk14: 250a 620453i bk15: 248a 620195i 
dram_util_bins: 0 0 0 0 0 0 0 0 0 0
dram_eff_bins: 0 0 0 0 0 0 0 0 0 0
mrqq: max=14 avg=0.136184
Memory Partition 3: 
Cache L2_bank_006:
MSHR contents
MSHR: tag=0xc007fb00, atomic=0 1 entries : 0x7cf0cc000d80 :  mf: uid= 99996, sid03:w14, part=3, addr=0xc007fb00, load , size=128, unknown  status = IN_PARTITION_DRAM (557305), 

Cache L2_bank_007:
MSHR contents
MSHR: tag=0xc007fb80, atomic=0 1 entries : 0x7cf0cc9f7de0 :  mf: uid= 99997, sid04:w14, part=3, addr=0xc007fb80, load , size=128, unknown  status = IN_PARTITION_DRAM (557305), 

In Dram Latency Queue (total = 0): 
DRAM[3]: 16 bks, busW=4 BL=8 CL=12, tRRD=2 tCCD=6, tRCD=12 tRAS=28 tRP=12 tRC=40
n_cmd=622334 n_nop=615996 n_act=124 n_pre=108 n_req=1528 n_rd=4074 n_write=2032 bw_util=0.01962
n_activity=18961 dram_eff=0.6441
bk0: 252a 620524i bk1: 252a 620245i bk2: 256a 620473i bk3: 256a 620202i bk4: 256a 620463i bk5: 256a 620187i bk6: 256a 620398i bk7: 256a 620136i bk8: 256a 620469i bk9: 256a 620195i bk10: 256a 620341i bk11: 256a 620067i bk12: 256a 620440i bk13: 256a 620193i bk14: 250a 620451i bk15: 248a 620191i 
dram_util_bins: 0 0 0 0 0 0 0 0 0 0
dram_eff_bins: 0 0 0 0 0 0 0 0 0 0
mrqq: max=14 avg=0.136943

========= L2 cache stats =========
L2_cache_bank[0]: Access = 3358, Miss = 512, Miss_rate = 0.152, Pending_hits = 718, Reservation_fails = 0
L2_cache_bank[1]: Access = 4092, Miss = 511, Miss_rate = 0.125, Pending_hits = 686, Reservation_fails = 0
L2_cache_bank[2]: Access = 4092, Miss = 511, Miss_rate = 0.125, Pending_hits = 671, Reservation_fails = 0
L2_cache_bank[3]: Access = 4092, Miss = 511, Miss_rate = 0.125, Pending_hits = 671, Reservation_fails = 0
L2_cache_bank[4]: Access = 4064, Miss = 510, Miss_rate = 0.125, Pending_hits = 664, Reservation_fails = 0
L2_cache_bank[5]: Access = 4064, Miss = 510, Miss_rate = 0.125, Pending_hits = 664, Reservation_fails = 0
L2_cache_bank[6]: Access = 4064, Miss = 510, Miss_rate = 0.125, Pending_hits = 664, Reservation_fails = 0
L2_cache_bank[7]: Access = 3302, Miss = 510, Miss_rate = 0.154, Pending_hits = 330, Reservation_fails = 0
L2_total_cache_accesses = 31128
L2_total_cache_misses = 4085
L2_total_cache_miss_rate = 0.1312
L2_total_cache_pending_hits = 5068
L2_total_cache_reservation_fails = 0
L2_total_cache_breakdown:
	L2_cache_stats_breakdown[GLOBAL_ACC_R][HIT] = 21930
	L2_cache_stats_breakdown[GLOBAL_ACC_R][HIT_RESERVED] = 4978
	L2_cache_stats_breakdown[GLOBAL_ACC_R][MISS] = 2048
	L2_cache_stats_breakdown[GLOBAL_ACC_R][RESERVATION_FAIL] = 0
	L2_cache_stats_breakdown[LOCAL_ACC_R][HIT] = 0
	L2_cache_stats_breakdown[LOCAL_ACC_R][HIT_RESERVED] = 0
	L2_cache_stats_breakdown[LOCAL_ACC_R][MISS] = 0
	L2_cache_stats_breakdown[LOCAL_ACC_R][RESERVATION_FAIL] = 0
	L2_cache_stats_breakdown[CONST_ACC_R][HIT] = 0
	L2_cache_stats_breakdown[CONST_ACC_R][HIT_RESERVED] = 27
	L2_cache_stats_breakdown[CONST_ACC_R][MISS] = 1
	L2_cache_stats_breakdown[CONST_ACC_R][RESERVATION_FAIL] = 0
	L2_cache_stats_breakdown[TEXTURE_ACC_R][HIT] = 0
	L2_cache_stats_breakdown[TEXTURE_ACC_R][HIT_RESERVED] = 0
	L2_cache_stats_breakdown[TEXTURE_ACC_R][MISS] = 0
	L2_cache_stats_breakdown[TEXTURE_ACC_R][RESERVATION_FAIL] = 0
	L2_cache_stats_breakdown[GLOBAL_ACC_W][HIT] = 0
	L2_cache_stats_breakdown[GLOBAL_ACC_W][HIT_RESERVED] = 0
	L2_cache_stats_breakdown[GLOBAL_ACC_W][MISS] = 2032
	L2_cache_stats_breakdown[GLOBAL_ACC_W][RESERVATION_FAIL] = 0
	L2_cache_stats_breakdown[LOCAL_ACC_W][HIT] = 0
	L2_cache_stats_breakdown[LOCAL_ACC_W][HIT_RESERVED] = 0
	L2_cache_stats_breakdown[LOCAL_ACC_W][MISS] = 0
	L2_cache_stats_breakdown[LOCAL_ACC_W][RESERVATION_FAIL] = 0
	L2_cache_stats_breakdown[L1_WRBK_ACC][HIT] = 0
	L2_cache_stats_breakdown[L1_WRBK_ACC][HIT_RESERVED] = 0
	L2_cache_stats_breakdown[L1_WRBK_ACC][MISS] = 0
	L2_cache_stats_breakdown[L1_WRBK_ACC][RESERVATION_FAIL] = 0
	L2_cache_stats_breakdown[L2_WRBK_ACC][HIT] = 0
	L2_cache_stats_breakdown[L2_WRBK_ACC][HIT_RESERVED] = 0
	L2_cache_stats_breakdown[L2_WRBK_ACC][MISS] = 0
	L2_cache_stats_breakdown[L2_WRBK_ACC][RESERVATION_FAIL] = 0
	L2_cache_stats_breakdown[INST_ACC_R][HIT] = 45
	L2_cache_stats_breakdown[INST_ACC_R][HIT_RESERVED] = 63
	L2_cache_stats_breakdown[INST_ACC_R][MISS] = 4
	L2_cache_stats_breakdown[INST_ACC_R][RESERVATION_FAIL] = 0
	L2_cache_stats_breakdown[L1_WR_ALLOC_R][HIT] = 0
	L2_cache_stats_breakdown[L1_WR_ALLOC_R][HIT_RESERVED] = 0
	L2_cache_stats_breakdown[L1_WR_ALLOC_R][MISS] = 0
	L2_cache_stats_breakdown[L1_WR_ALLOC_R][RESERVATION_FAIL] = 0
	L2_cache_stats_breakdown[L2_WR_ALLOC_R][HIT] = 0
	L2_cache_stats_breakdown[L2_WR_ALLOC_R][HIT_RESERVED] = 0
	L2_cache_stats_breakdown[L2_WR_ALLOC_R][MISS] = 0
	L2_cache_stats_breakdown[L2_WR_ALLOC_R][RESERVATION_FAIL] = 0
	L2_cache_stats_breakdown[GLOBAL_ACC_R][TOTAL_ACCESS] = 28956
	L2_cache_stats_breakdown[CONST_ACC_R][TOTAL_ACCESS] = 28
	L2_cache_stats_breakdown[GLOBAL_ACC_W][TOTAL_ACCESS] = 2032
	L2_cache_stats_breakdown[INST_ACC_R][TOTAL_ACCESS] = 112
L2_cache_data_port_util = 0.023
L2_cache_fill_port_util = 0.006

icnt_total_pkts_mem_to_simt=115452
icnt_total_pkts_simt_to_mem=39256
LD_mem_lat_dist  0 0 0 0 0 0 0 0 0 0 0 0 0 0 0 0 0 0 0 0 0 0 0 0 0 0 0
ST_mem_lat_dist  0 0 0 0 0 0 0 0 0 0 0 0 0 0 0 0 0 0 0 0 0 0 0 0 0 0 0
----------------------------Interconnect-DETAILS--------------------------------
Class 0:
Packet latency average = 9.83473
	minimum = 6
	maximum = 60
Network latency average = 9.18326
	minimum = 6
	maximum = 60
Slowest packet = 27
Flit latency average = 7.75953
	minimum = 6
	maximum = 60
Slowest flit = 27
Fragmentation average = 0
	minimum = 0
	maximum = 0
Injected packet rate average = 0.00185753
	minimum = 0 (at node 36)
	maximum = 0.00610464 (at node 29)
Accepted packet rate average = 0.00185753
	minimum = 0 (at node 36)
	maximum = 0.00610464 (at node 29)
Injected flit rate average = 0.00461601
	minimum = 0 (at node 36)
	maximum = 0.0221867 (at node 29)
Accepted flit rate average= 0.00461601
	minimum = 0 (at node 36)
	maximum = 0.00762035 (at node 29)
Injected packet length average = 2.48503
Accepted packet length average = 2.48503
Total in-flight flits = 0 (0 measured)
====== Overall Traffic Statistics ======
====== Traffic class 0 ======
Packet latency average = 9.83473 (1 samples)
	minimum = 6 (1 samples)
	maximum = 60 (1 samples)
Network latency average = 9.18326 (1 samples)
	minimum = 6 (1 samples)
	maximum = 60 (1 samples)
Flit latency average = 7.75953 (1 samples)
	minimum = 6 (1 samples)
	maximum = 60 (1 samples)
Fragmentation average = 0 (1 samples)
	minimum = 0 (1 samples)
	maximum = 0 (1 samples)
Injected packet rate average = 0.00185753 (1 samples)
	minimum = 0 (1 samples)
	maximum = 0.00610464 (1 samples)
Accepted packet rate average = 0.00185753 (1 samples)
	minimum = 0 (1 samples)
	maximum = 0.00610464 (1 samples)
Injected flit rate average = 0.00461601 (1 samples)
	minimum = 0 (1 samples)
	maximum = 0.0221867 (1 samples)
Accepted flit rate average = 0.00461601 (1 samples)
	minimum = 0 (1 samples)
	maximum = 0.00762035 (1 samples)
Injected packet size average = 2.48503 (1 samples)
Accepted packet size average = 2.48503 (1 samples)
Hops average = 1 (1 samples)
----------------------------END-of-Interconnect-DETAILS-------------------------


gpgpu_simulation_time = 0 days, 0 hrs, 3 min, 0 sec (180 sec)
gpgpu_simulation_rate = 17311 (inst/sec)
gpgpu_simulation_rate = 3096 (cycle/sec)

GPGPU-Sim PTX: cudaLaunch for 0x0x400f19 (mode=performance simulation) on stream 0
GPGPU-Sim PTX: pushing kernel '_Z20Convolution2D_kernelPfS_' to stream 0, gridDim= (8,32,1) blockDim = (32,8,1) 
GPGPU-Sim uArch: Shader 5 bind to kernel 2 '_Z20Convolution2D_kernelPfS_'
GPGPU-Sim uArch: Shader 6 bind to kernel 2 '_Z20Convolution2D_kernelPfS_'
GPGPU-Sim uArch: Shader 7 bind to kernel 2 '_Z20Convolution2D_kernelPfS_'
GPGPU-Sim uArch: Shader 8 bind to kernel 2 '_Z20Convolution2D_kernelPfS_'
GPGPU-Sim uArch: Shader 9 bind to kernel 2 '_Z20Convolution2D_kernelPfS_'
GPGPU-Sim uArch: Shader 10 bind to kernel 2 '_Z20Convolution2D_kernelPfS_'
GPGPU-Sim uArch: Shader 11 bind to kernel 2 '_Z20Convolution2D_kernelPfS_'
GPGPU-Sim uArch: Shader 12 bind to kernel 2 '_Z20Convolution2D_kernelPfS_'
GPGPU-Sim uArch: Shader 13 bind to kernel 2 '_Z20Convolution2D_kernelPfS_'
GPGPU-Sim uArch: Shader 14 bind to kernel 2 '_Z20Convolution2D_kernelPfS_'
GPGPU-Sim uArch: Shader 15 bind to kernel 2 '_Z20Convolution2D_kernelPfS_'
GPGPU-Sim uArch: Shader 16 bind to kernel 2 '_Z20Convolution2D_kernelPfS_'
GPGPU-Sim uArch: Shader 17 bind to kernel 2 '_Z20Convolution2D_kernelPfS_'
GPGPU-Sim uArch: Shader 18 bind to kernel 2 '_Z20Convolution2D_kernelPfS_'
GPGPU-Sim uArch: Shader 19 bind to kernel 2 '_Z20Convolution2D_kernelPfS_'
GPGPU-Sim uArch: Shader 20 bind to kernel 2 '_Z20Convolution2D_kernelPfS_'
GPGPU-Sim uArch: Shader 21 bind to kernel 2 '_Z20Convolution2D_kernelPfS_'
GPGPU-Sim uArch: Shader 22 bind to kernel 2 '_Z20Convolution2D_kernelPfS_'
GPGPU-Sim uArch: Shader 23 bind to kernel 2 '_Z20Convolution2D_kernelPfS_'
GPGPU-Sim uArch: Shader 24 bind to kernel 2 '_Z20Convolution2D_kernelPfS_'
GPGPU-Sim uArch: Shader 25 bind to kernel 2 '_Z20Convolution2D_kernelPfS_'
GPGPU-Sim uArch: Shader 26 bind to kernel 2 '_Z20Convolution2D_kernelPfS_'
GPGPU-Sim uArch: Shader 27 bind to kernel 2 '_Z20Convolution2D_kernelPfS_'
GPGPU-Sim uArch: Shader 0 bind to kernel 2 '_Z20Convolution2D_kernelPfS_'
GPGPU-Sim uArch: Shader 1 bind to kernel 2 '_Z20Convolution2D_kernelPfS_'
GPGPU-Sim uArch: Shader 2 bind to kernel 2 '_Z20Convolution2D_kernelPfS_'
GPGPU-Sim uArch: Shader 3 bind to kernel 2 '_Z20Convolution2D_kernelPfS_'
GPGPU-Sim uArch: Shader 4 bind to kernel 2 '_Z20Convolution2D_kernelPfS_'
GPGPU-Sim uArch: Shader 5 bind to kernel 2 '_Z20Convolution2D_kernelPfS_'
GPGPU-Sim uArch: Shader 6 bind to kernel 2 '_Z20Convolution2D_kernelPfS_'
GPGPU-Sim uArch: Shader 7 bind to kernel 2 '_Z20Convolution2D_kernelPfS_'
GPGPU-Sim uArch: Shader 8 bind to kernel 2 '_Z20Convolution2D_kernelPfS_'
GPGPU-Sim uArch: Shader 17 bind to kernel 2 '_Z20Convolution2D_kernelPfS_'
GPGPU-Sim uArch: Shader 18 bind to kernel 2 '_Z20Convolution2D_kernelPfS_'
GPGPU-Sim uArch: Shader 19 bind to kernel 2 '_Z20Convolution2D_kernelPfS_'
GPGPU-Sim uArch: Shader 20 bind to kernel 2 '_Z20Convolution2D_kernelPfS_'
GPGPU-Sim uArch: Shader 21 bind to kernel 2 '_Z20Convolution2D_kernelPfS_'
GPGPU-Sim uArch: Shader 22 bind to kernel 2 '_Z20Convolution2D_kernelPfS_'
GPGPU-Sim uArch: Shader 23 bind to kernel 2 '_Z20Convolution2D_kernelPfS_'
GPGPU-Sim uArch: Shader 24 bind to kernel 2 '_Z20Convolution2D_kernelPfS_'
GPGPU-Sim uArch: Shader 25 bind to kernel 2 '_Z20Convolution2D_kernelPfS_'
GPGPU-Sim uArch: Shader 26 bind to kernel 2 '_Z20Convolution2D_kernelPfS_'
GPGPU-Sim uArch: Shader 27 bind to kernel 2 '_Z20Convolution2D_kernelPfS_'
GPGPU-Sim uArch: Shader 0 bind to kernel 2 '_Z20Convolution2D_kernelPfS_'
GPGPU-Sim uArch: Shader 1 bind to kernel 2 '_Z20Convolution2D_kernelPfS_'
GPGPU-Sim uArch: Shader 2 bind to kernel 2 '_Z20Convolution2D_kernelPfS_'
GPGPU-Sim uArch: Shader 3 bind to kernel 2 '_Z20Convolution2D_kernelPfS_'
GPGPU-Sim uArch: Shader 4 bind to kernel 2 '_Z20Convolution2D_kernelPfS_'
Destroy streams for kernel 2: size 0
kernel_name = _Z20Convolution2D_kernelPfS_ 
kernel_launch_uid = 2 
gpu_sim_cycle = 334920
gpu_sim_insn = 3116148
gpu_ipc =       9.3042
gpu_tot_sim_cycle = 1154366
gpu_tot_sim_insn = 6232296
gpu_tot_ipc =       5.3989
gpu_tot_issued_cta = 512
max_total_param_size = 0
gpu_stall_dramfull = 96
gpu_stall_icnt2sh    = 35480
partiton_reqs_in_parallel = 2679295
partiton_reqs_in_parallel_total    = 2681217
partiton_level_parallism =       7.9998
partiton_level_parallism_total  =       4.6437
partiton_reqs_in_parallel_util = 2679295
partiton_reqs_in_parallel_util_total    = 2681217
gpu_sim_cycle_parition_util = 334920
gpu_tot_sim_cycle_parition_util    = 335156
partiton_level_parallism_util =       7.9998
partiton_level_parallism_util_total  =       7.9999
partiton_replys_in_parallel = 30988
partiton_replys_in_parallel_total    = 31128
L2_BW  =       8.7698 GB/Sec
L2_BW_total  =       5.1003 GB/Sec
gpu_total_sim_rate=17457

========= Core cache stats =========
L1I_cache:
	L1I_total_cache_accesses = 101952
	L1I_total_cache_misses = 2458
	L1I_total_cache_miss_rate = 0.0241
	L1I_total_cache_pending_hits = 0
	L1I_total_cache_reservation_fails = 6851
L1D_cache:
	L1D_cache_core[0]: Access = 0, Miss = 0, Miss_rate = -nan, Pending_hits = 0, Reservation_fails = 0
	L1D_cache_core[1]: Access = 0, Miss = 0, Miss_rate = -nan, Pending_hits = 0, Reservation_fails = 0
	L1D_cache_core[2]: Access = 0, Miss = 0, Miss_rate = -nan, Pending_hits = 0, Reservation_fails = 0
	L1D_cache_core[3]: Access = 0, Miss = 0, Miss_rate = -nan, Pending_hits = 0, Reservation_fails = 0
	L1D_cache_core[4]: Access = 0, Miss = 0, Miss_rate = -nan, Pending_hits = 0, Reservation_fails = 0
	L1D_cache_core[5]: Access = 0, Miss = 0, Miss_rate = -nan, Pending_hits = 0, Reservation_fails = 0
	L1D_cache_core[6]: Access = 0, Miss = 0, Miss_rate = -nan, Pending_hits = 0, Reservation_fails = 0
	L1D_cache_core[7]: Access = 0, Miss = 0, Miss_rate = -nan, Pending_hits = 0, Reservation_fails = 0
	L1D_cache_core[8]: Access = 0, Miss = 0, Miss_rate = -nan, Pending_hits = 0, Reservation_fails = 0
	L1D_cache_core[9]: Access = 0, Miss = 0, Miss_rate = -nan, Pending_hits = 0, Reservation_fails = 0
	L1D_cache_core[10]: Access = 0, Miss = 0, Miss_rate = -nan, Pending_hits = 0, Reservation_fails = 0
	L1D_cache_core[11]: Access = 0, Miss = 0, Miss_rate = -nan, Pending_hits = 0, Reservation_fails = 0
	L1D_cache_core[12]: Access = 0, Miss = 0, Miss_rate = -nan, Pending_hits = 0, Reservation_fails = 0
	L1D_cache_core[13]: Access = 0, Miss = 0, Miss_rate = -nan, Pending_hits = 0, Reservation_fails = 0
	L1D_cache_core[14]: Access = 0, Miss = 0, Miss_rate = -nan, Pending_hits = 0, Reservation_fails = 0
	L1D_cache_core[15]: Access = 0, Miss = 0, Miss_rate = -nan, Pending_hits = 0, Reservation_fails = 0
	L1D_cache_core[16]: Access = 0, Miss = 0, Miss_rate = -nan, Pending_hits = 0, Reservation_fails = 0
	L1D_cache_core[17]: Access = 0, Miss = 0, Miss_rate = -nan, Pending_hits = 0, Reservation_fails = 0
	L1D_cache_core[18]: Access = 0, Miss = 0, Miss_rate = -nan, Pending_hits = 0, Reservation_fails = 0
	L1D_cache_core[19]: Access = 0, Miss = 0, Miss_rate = -nan, Pending_hits = 0, Reservation_fails = 0
	L1D_cache_core[20]: Access = 0, Miss = 0, Miss_rate = -nan, Pending_hits = 0, Reservation_fails = 0
	L1D_cache_core[21]: Access = 0, Miss = 0, Miss_rate = -nan, Pending_hits = 0, Reservation_fails = 0
	L1D_cache_core[22]: Access = 0, Miss = 0, Miss_rate = -nan, Pending_hits = 0, Reservation_fails = 0
	L1D_cache_core[23]: Access = 0, Miss = 0, Miss_rate = -nan, Pending_hits = 0, Reservation_fails = 0
	L1D_cache_core[24]: Access = 0, Miss = 0, Miss_rate = -nan, Pending_hits = 0, Reservation_fails = 0
	L1D_cache_core[25]: Access = 0, Miss = 0, Miss_rate = -nan, Pending_hits = 0, Reservation_fails = 0
	L1D_cache_core[26]: Access = 0, Miss = 0, Miss_rate = -nan, Pending_hits = 0, Reservation_fails = 0
	L1D_cache_core[27]: Access = 0, Miss = 0, Miss_rate = -nan, Pending_hits = 0, Reservation_fails = 0
	L1D_total_cache_accesses = 0
	L1D_total_cache_misses = 0
	L1D_total_cache_pending_hits = 0
	L1D_total_cache_reservation_fails = 0
	L1D_cache_data_port_util = 0.000
	L1D_cache_fill_port_util = 0.000
L1C_cache:
	L1C_total_cache_accesses = 8192
	L1C_total_cache_misses = 1792
	L1C_total_cache_miss_rate = 0.2188
	L1C_total_cache_pending_hits = 0
	L1C_total_cache_reservation_fails = 5054
L1T_cache:
	L1T_total_cache_accesses = 0
	L1T_total_cache_misses = 0
	L1T_total_cache_pending_hits = 0
	L1T_total_cache_reservation_fails = 0

Total_core_cache_stats:
	Total_core_cache_stats_breakdown[GLOBAL_ACC_R][HIT] = 0
	Total_core_cache_stats_breakdown[GLOBAL_ACC_R][HIT_RESERVED] = 0
	Total_core_cache_stats_breakdown[GLOBAL_ACC_R][MISS] = 0
	Total_core_cache_stats_breakdown[GLOBAL_ACC_R][RESERVATION_FAIL] = 0
	Total_core_cache_stats_breakdown[LOCAL_ACC_R][HIT] = 0
	Total_core_cache_stats_breakdown[LOCAL_ACC_R][HIT_RESERVED] = 0
	Total_core_cache_stats_breakdown[LOCAL_ACC_R][MISS] = 0
	Total_core_cache_stats_breakdown[LOCAL_ACC_R][RESERVATION_FAIL] = 0
	Total_core_cache_stats_breakdown[CONST_ACC_R][HIT] = 6400
	Total_core_cache_stats_breakdown[CONST_ACC_R][HIT_RESERVED] = 0
	Total_core_cache_stats_breakdown[CONST_ACC_R][MISS] = 1792
	Total_core_cache_stats_breakdown[CONST_ACC_R][RESERVATION_FAIL] = 5054
	Total_core_cache_stats_breakdown[TEXTURE_ACC_R][HIT] = 0
	Total_core_cache_stats_breakdown[TEXTURE_ACC_R][HIT_RESERVED] = 0
	Total_core_cache_stats_breakdown[TEXTURE_ACC_R][MISS] = 0
	Total_core_cache_stats_breakdown[TEXTURE_ACC_R][RESERVATION_FAIL] = 0
	Total_core_cache_stats_breakdown[GLOBAL_ACC_W][HIT] = 0
	Total_core_cache_stats_breakdown[GLOBAL_ACC_W][HIT_RESERVED] = 0
	Total_core_cache_stats_breakdown[GLOBAL_ACC_W][MISS] = 0
	Total_core_cache_stats_breakdown[GLOBAL_ACC_W][RESERVATION_FAIL] = 0
	Total_core_cache_stats_breakdown[LOCAL_ACC_W][HIT] = 0
	Total_core_cache_stats_breakdown[LOCAL_ACC_W][HIT_RESERVED] = 0
	Total_core_cache_stats_breakdown[LOCAL_ACC_W][MISS] = 0
	Total_core_cache_stats_breakdown[LOCAL_ACC_W][RESERVATION_FAIL] = 0
	Total_core_cache_stats_breakdown[L1_WRBK_ACC][HIT] = 0
	Total_core_cache_stats_breakdown[L1_WRBK_ACC][HIT_RESERVED] = 0
	Total_core_cache_stats_breakdown[L1_WRBK_ACC][MISS] = 0
	Total_core_cache_stats_breakdown[L1_WRBK_ACC][RESERVATION_FAIL] = 0
	Total_core_cache_stats_breakdown[L2_WRBK_ACC][HIT] = 0
	Total_core_cache_stats_breakdown[L2_WRBK_ACC][HIT_RESERVED] = 0
	Total_core_cache_stats_breakdown[L2_WRBK_ACC][MISS] = 0
	Total_core_cache_stats_breakdown[L2_WRBK_ACC][RESERVATION_FAIL] = 0
	Total_core_cache_stats_breakdown[INST_ACC_R][HIT] = 99494
	Total_core_cache_stats_breakdown[INST_ACC_R][HIT_RESERVED] = 0
	Total_core_cache_stats_breakdown[INST_ACC_R][MISS] = 2458
	Total_core_cache_stats_breakdown[INST_ACC_R][RESERVATION_FAIL] = 6851
	Total_core_cache_stats_breakdown[L1_WR_ALLOC_R][HIT] = 0
	Total_core_cache_stats_breakdown[L1_WR_ALLOC_R][HIT_RESERVED] = 0
	Total_core_cache_stats_breakdown[L1_WR_ALLOC_R][MISS] = 0
	Total_core_cache_stats_breakdown[L1_WR_ALLOC_R][RESERVATION_FAIL] = 0
	Total_core_cache_stats_breakdown[L2_WR_ALLOC_R][HIT] = 0
	Total_core_cache_stats_breakdown[L2_WR_ALLOC_R][HIT_RESERVED] = 0
	Total_core_cache_stats_breakdown[L2_WR_ALLOC_R][MISS] = 0
	Total_core_cache_stats_breakdown[L2_WR_ALLOC_R][RESERVATION_FAIL] = 0
	Total_core_cache_stats_breakdown[CONST_ACC_R][TOTAL_ACCESS] = 8192
	Total_core_cache_stats_breakdown[INST_ACC_R][TOTAL_ACCESS] = 101952
Shader 0 warp_id issue ditsribution:
warp_id:
0, 1, 2, 3, 4, 5, 6, 7, 8, 9, 10, 11, 12, 13, 14, 15, 16, 17, 18, 19, 20, 21, 22, 23, 24, 25, 26, 27, 28, 29, 30, 31, 32, 33, 34, 35, 36, 37, 38, 39, 40, 41, 42, 43, 44, 45, 46, 47, 48, 49, 50, 51, 52, 53, 54, 55, 56, 57, 58, 59, 60, 61, 62, 63, 
distro:
224, 224, 224, 224, 224, 224, 224, 192, 112, 112, 112, 112, 112, 112, 112, 112, 112, 112, 112, 112, 112, 112, 112, 112, 112, 112, 112, 112, 112, 112, 112, 112, 112, 112, 112, 112, 112, 112, 112, 112, 112, 112, 112, 112, 112, 112, 112, 112, 112, 112, 112, 112, 112, 112, 112, 112, 112, 112, 112, 112, 112, 112, 112, 112, 
gpgpu_n_tot_thrd_icount = 6391808
gpgpu_n_tot_w_icount = 199744
gpgpu_n_stall_shd_mem = 29230
gpgpu_n_mem_read_local = 0
gpgpu_n_mem_write_local = 0
gpgpu_n_mem_read_global = 57912
gpgpu_n_mem_write_global = 4064
gpgpu_n_mem_texture = 0
gpgpu_n_mem_const = 28
gpgpu_n_load_insn  = 1161288
gpgpu_n_store_insn = 129032
gpgpu_n_shmem_insn = 0
gpgpu_n_tex_insn = 0
gpgpu_n_const_mem_insn = 0
gpgpu_n_param_mem_insn = 262144
gpgpu_n_shmem_bkconflict = 0
gpgpu_n_cache_bkconflict = 0
gpgpu_n_intrawarp_mshr_merge = 0
gpgpu_n_cmem_portconflict = 5054
gpgpu_stall_shd_mem[c_mem][bk_conf] = 5054
gpgpu_stall_shd_mem[c_mem][mshr_rc] = 0
gpgpu_stall_shd_mem[c_mem][icnt_rc] = 0
gpgpu_stall_shd_mem[c_mem][data_port_stall] = 0
gpgpu_stall_shd_mem[t_mem][mshr_rc] = 0
gpgpu_stall_shd_mem[t_mem][icnt_rc] = 0
gpgpu_stall_shd_mem[t_mem][data_port_stall] = 0
gpgpu_stall_shd_mem[s_mem][bk_conf] = 0
gpgpu_stall_shd_mem[gl_mem][bk_conf] = 0
gpgpu_stall_shd_mem[gl_mem][coal_stall] = 21336
gpgpu_stall_shd_mem[gl_mem][data_port_stall] = 0
gpgpu_stall_shd_mem[g_mem_ld][mshr_rc] = 0
gpgpu_stall_shd_mem[g_mem_ld][icnt_rc] = 2840
gpgpu_stall_shd_mem[g_mem_ld][wb_icnt_rc] = 0
gpgpu_stall_shd_mem[g_mem_ld][wb_rsrv_fail] = 0
gpgpu_stall_shd_mem[g_mem_st][mshr_rc] = 0
gpgpu_stall_shd_mem[g_mem_st][icnt_rc] = 0
gpgpu_stall_shd_mem[g_mem_st][wb_icnt_rc] = 0
gpgpu_stall_shd_mem[g_mem_st][wb_rsrv_fail] = 0
gpgpu_stall_shd_mem[l_mem_ld][mshr_rc] = 0
gpgpu_stall_shd_mem[l_mem_ld][icnt_rc] = 0
gpgpu_stall_shd_mem[l_mem_ld][wb_icnt_rc] = 0
gpgpu_stall_shd_mem[l_mem_ld][wb_rsrv_fail] = 0
gpgpu_stall_shd_mem[l_mem_st][mshr_rc] = 0
gpgpu_stall_shd_mem[l_mem_st][icnt_rc] = 0
gpgpu_stall_shd_mem[l_mem_ld][wb_icnt_rc] = 0
gpgpu_stall_shd_mem[l_mem_ld][wb_rsrv_fail] = 0
gpu_reg_bank_conflict_stalls = 0
Warp Occupancy Distribution:
Stall:10582	W0_Idle:18437101	W0_Scoreboard:18880333	W1:0	W2:0	W3:0	W4:0	W5:0	W6:0	W7:0	W8:0	W9:0	W10:0	W11:0	W12:0	W13:0	W14:0	W15:0	W16:0	W17:0	W18:0	W19:0	W20:0	W21:0	W22:0	W23:0	W24:0	W25:0	W26:0	W27:0	W28:0	W29:0	W30:0	W31:30480	W32:169264
traffic_breakdown_coretomem[CONST_ACC_R] = 224 {8:28,}
traffic_breakdown_coretomem[GLOBAL_ACC_R] = 463296 {8:57912,}
traffic_breakdown_coretomem[GLOBAL_ACC_W] = 552704 {136:4064,}
traffic_breakdown_coretomem[INST_ACC_R] = 896 {8:112,}
traffic_breakdown_memtocore[CONST_ACC_R] = 2016 {72:28,}
traffic_breakdown_memtocore[GLOBAL_ACC_R] = 5827776 {40:21336,136:36576,}
traffic_breakdown_memtocore[GLOBAL_ACC_W] = 32512 {8:4064,}
traffic_breakdown_memtocore[INST_ACC_R] = 15232 {136:112,}
maxmrqlatency = 114 
maxdqlatency = 0 
maxmflatency = 194603 
averagemflatency = 22805 
max_icnt2mem_latency = 194369 
max_icnt2sh_latency = 1154365 
mrq_lat_table:2228 	830 	630 	894 	2779 	2842 	2026 	0 	0 	0 	0 	0 	0 	0 	0 	0 	0 	0 	0 	0 	0 	0 	0 	0 	0 	0 	0 	0 	0 	0 	0 	0 	
dq_lat_table:0 	0 	0 	0 	0 	0 	0 	0 	0 	0 	0 	0 	0 	0 	0 	0 	0 	0 	0 	0 	0 	0 	0 	0 	0 	0 	0 	0 	0 	0 	0 	0 	
mf_lat_table:0 	0 	0 	0 	0 	0 	0 	44131 	902 	10 	120 	496 	1246 	1422 	1424 	2756 	5103 	4394 	0 	0 	0 	0 	0 	0 	0 	0 	0 	0 	0 	0 	0 	0 	
icnt2mem_lat_table:0 	0 	43718 	14 	19 	0 	1362 	42 	0 	0 	120 	496 	1322 	1346 	1424 	2756 	5103 	4394 	0 	0 	0 	0 	0 	0 	
icnt2sh_lat_table:0 	0 	44273 	13330 	337 	0 	0 	0 	0 	0 	0 	0 	0 	0 	0 	0 	0 	0 	1656 	1168 	1240 	0 	0 	0 	
mf_lat_pw_table:0 	0 	0 	0 	0 	0 	0 	253 	6 	0 	5 	3 	12 	18 	32 	55 	45 	101 	0 	0 	0 	0 	0 	0 	0 	0 	0 	0 	0 	0 	0 	0 	
maximum concurrent accesses to same row:
dram[0]:        30        30        24        24        24        24        32        32        32        32        24        24        32        32        32        32 
dram[1]:        30        30        24        24        24        24        32        32        32        32        24        24        32        32        32        32 
dram[2]:        30        30        24        24        24        24        32        32        32        32        24        24        32        32        32        32 
dram[3]:        30        30        24        24        24        24        32        32        32        32        24        24        32        32        32        32 
maximum service time to same row:
dram[0]:    135462    135463    140671    140673    129043    129042    117224    117225    101597    101597     72941     72940    162909    162910    173329    173330 
dram[1]:    135463    135462    140671    140673    129042    129043    117224    117225    101597    101597     72940     72941    162909    162910    173329    173330 
dram[2]:    135462    135463    140672    140672    129042    129043    117224    117225    101597    101597     72940     72941    162909    162910    173329    173330 
dram[3]:    135463    135462    140672    140672    129042    129044    117224    117225    101597    101597     72941     72939    162909    162910    173329    173330 
average row accesses per activate:
dram[0]: 17.272728 17.181818 17.454546 17.454546 12.800000 12.800000 13.714286 13.714286 13.714286 13.714286 10.105263 10.105263 12.000000 12.000000 14.461538 14.461538 
dram[1]: 17.181818 17.181818 17.454546 17.454546 12.800000 12.800000 13.714286 13.714286 13.714286 13.714286 10.105263 10.105263 12.000000 12.000000 14.461538 14.461538 
dram[2]: 20.888889 20.888889 17.454546 17.454546 12.800000 12.800000 13.714286 13.714286 13.714286 13.714286 10.105263 10.105263 12.000000 12.000000 14.461538 14.461538 
dram[3]: 20.888889 20.888889 17.454546 17.454546 12.800000 12.800000 13.714286 13.714286 13.714286 13.714286 10.105263 10.105263 12.000000 12.000000 14.461538 14.461538 
average row locality = 12229/896 = 13.648438
number of total memory accesses made:
dram[0]:         0         0         0         0         0         0         0         0         0         0         0         0         0         0         0         0 
dram[1]:         0         0         0         0         0         0         0         0         0         0         0         0         0         0         0         0 
dram[2]:         0         0         0         0         0         0         0         0         0         0         0         0         0         0         0         0 
dram[3]:         0         0         0         0         0         0         0         0         0         0         0         0         0         0         0         0 
total accesses: 0
min_bank_accesses = 0!
min_chip_accesses = 0!
number of total read accesses:
dram[0]:       128       127       128       128       128       128       128       128       128       128       128       128       128       128       126       126 
dram[1]:       127       127       128       128       128       128       128       128       128       128       128       128       128       128       126       126 
dram[2]:       126       126       128       128       128       128       128       128       128       128       128       128       128       128       126       126 
dram[3]:       126       126       128       128       128       128       128       128       128       128       128       128       128       128       126       126 
total reads: 8165
bank skew: 128/126 = 1.02
chip skew: 2043/2040 = 1.00
number of total write accesses:
dram[0]:        62        62        64        64        64        64        64        64        64        64        64        64        64        64        62        62 
dram[1]:        62        62        64        64        64        64        64        64        64        64        64        64        64        64        62        62 
dram[2]:        62        62        64        64        64        64        64        64        64        64        64        64        64        64        62        62 
dram[3]:        62        62        64        64        64        64        64        64        64        64        64        64        64        64        62        62 
total reads: 4064
bank skew: 64/62 = 1.03
chip skew: 1016/1016 = 1.00
average mf latency per bank:
dram[0]:     112792    113487    124187    124319    135323    135458    143040    143173    148081    148210    137954    138086     69369     69511     77477     77633
dram[1]:     113468    113489    124306    124327    135445    135464    143153    143171    148195    148218    138080    138096     69494     69513     77603     77624
dram[2]:     114082    114095    124313    124325    135448    135453    143154    143166    148208    148217    138082    138092     69509     69522     77595     77604
dram[3]:     114078     92140    124302     99598    135436    105408    143153    110632    148198    115221    138073    105587     69505     53711     77592     59847
maximum mf latency per bank:
dram[0]:     181595    181568    178972    178956    194603    194599    194602    194598    194354    194336    191729    191726    178995    178995    181303    181296
dram[1]:     181581    181567    178952    178955    194585    194598    194599    194597    194347    194335    191727    191724    178992    178995    181296    181295
dram[2]:     181566    181578    178952    178952    194602    194588    194598    194603    194347    194334    191733    191717    178992    178994    181303    181288
dram[3]:     181574    181588    178947    178960    194586    194600    194603    194595    194347    194339    191729    191723    178991    178992    181300    181294
Memory Partition 0: 
Cache L2_bank_000:
MSHR contents
MSHR: tag=0xc00f9c00, atomic=0 1 entries : 0x7cf0df6fdda0 :  mf: uid=188082, sid05:w07, part=0, addr=0xc00f9c00, load , size=128, unknown  status = IN_PARTITION_DRAM (1154365), 

Cache L2_bank_001:
MSHR contents
MSHR: tag=0xc00f9c80, atomic=0 1 entries : 0x7cf0c70910a0 :  mf: uid=188083, sid06:w07, part=0, addr=0xc00f9c80, load , size=128, unknown  status = IN_PARTITION_DRAM (1154365), 

In Dram Latency Queue (total = 0): 
DRAM[0]: 16 bks, busW=4 BL=8 CL=12, tRRD=2 tCCD=6, tRCD=12 tRAS=28 tRP=12 tRC=40
n_cmd=1244230 n_nop=1231543 n_act=236 n_pre=220 n_req=3059 n_rd=8167 n_write=4064 bw_util=0.01966
n_activity=38166 dram_eff=0.6409
bk0: 512a 1240586i bk1: 508a 1240050i bk2: 512a 1240485i bk3: 512a 1239929i bk4: 512a 1240380i bk5: 512a 1239847i bk6: 512a 1240432i bk7: 512a 1239890i bk8: 512a 1240428i bk9: 512a 1239885i bk10: 512a 1240293i bk11: 512a 1239753i bk12: 508a 1240521i bk13: 511a 1239947i bk14: 504a 1240541i bk15: 504a 1239970i 
dram_util_bins: 0 0 0 0 0 0 0 0 0 0
dram_eff_bins: 0 0 0 0 0 0 0 0 0 0
mrqq: max=18 avg=0.135465
Memory Partition 1: 
Cache L2_bank_002:
MSHR contents
MSHR: tag=0xc00f9d00, atomic=0 1 entries : 0x7cf0c70a12c0 :  mf: uid=188084, sid07:w07, part=1, addr=0xc00f9d00, load , size=128, unknown  status = IN_PARTITION_DRAM (1154365), 

Cache L2_bank_003:
MSHR contents
MSHR: tag=0xc00f9d80, atomic=0 1 entries : 0x7cf0d0a22df0 :  mf: uid=188085, sid08:w07, part=1, addr=0xc00f9d80, load , size=128, unknown  status = IN_PARTITION_DRAM (1154365), 

In Dram Latency Queue (total = 0): 
DRAM[1]: 16 bks, busW=4 BL=8 CL=12, tRRD=2 tCCD=6, tRCD=12 tRAS=28 tRP=12 tRC=40
n_cmd=1244230 n_nop=1231545 n_act=237 n_pre=221 n_req=3058 n_rd=8163 n_write=4064 bw_util=0.01965
n_activity=38100 dram_eff=0.6418
bk0: 508a 1240582i bk1: 508a 1240044i bk2: 512a 1240474i bk3: 512a 1239928i bk4: 512a 1240399i bk5: 512a 1239846i bk6: 512a 1240418i bk7: 512a 1239892i bk8: 512a 1240418i bk9: 512a 1239889i bk10: 512a 1240301i bk11: 512a 1239762i bk12: 511a 1240496i bk13: 508a 1239974i bk14: 504a 1240504i bk15: 504a 1239968i 
dram_util_bins: 0 0 0 0 0 0 0 0 0 0
dram_eff_bins: 0 0 0 0 0 0 0 0 0 0
mrqq: max=21 avg=0.135856
Memory Partition 2: 
Cache L2_bank_004:
MSHR contents
MSHR: tag=0xc00f9e00, atomic=0 1 entries : 0x7cf0cc3ef780 :  mf: uid=188086, sid09:w07, part=2, addr=0xc00f9e00, load , size=128, unknown  status = IN_PARTITION_DRAM (1154365), 

Cache L2_bank_005:
MSHR contents
MSHR: tag=0xc00f9e80, atomic=0 1 entries : 0x7cf0d3b56430 :  mf: uid=188087, sid10:w07, part=2, addr=0xc00f9e80, load , size=128, unknown  status = IN_PARTITION_DRAM (1154365), 

In Dram Latency Queue (total = 0): 
DRAM[2]: 16 bks, busW=4 BL=8 CL=12, tRRD=2 tCCD=6, tRCD=12 tRAS=28 tRP=12 tRC=40
n_cmd=1244230 n_nop=1231559 n_act=234 n_pre=218 n_req=3056 n_rd=8155 n_write=4064 bw_util=0.01964
n_activity=37867 dram_eff=0.6454
bk0: 504a 1240626i bk1: 504a 1240063i bk2: 512a 1240504i bk3: 512a 1239938i bk4: 512a 1240413i bk5: 512a 1239852i bk6: 512a 1240431i bk7: 512a 1239892i bk8: 512a 1240433i bk9: 512a 1239890i bk10: 512a 1240313i bk11: 512a 1239762i bk12: 511a 1240461i bk13: 508a 1239913i bk14: 504a 1240454i bk15: 504a 1239929i 
dram_util_bins: 0 0 0 0 0 0 0 0 0 0
dram_eff_bins: 0 0 0 0 0 0 0 0 0 0
mrqq: max=14 avg=0.134351
Memory Partition 3: 
Cache L2_bank_006:
MSHR contents
MSHR: tag=0xc00f9f00, atomic=0 1 entries : 0x7cf0c6a61b10 :  mf: uid=188088, sid11:w07, part=3, addr=0xc00f9f00, load , size=128, unknown  status = IN_PARTITION_DRAM (1154365), 

Cache L2_bank_007:
MSHR contents
MSHR: tag=0xc00f9f80, atomic=0 1 entries : 0x7cf0de7feae0 :  mf: uid=188089, sid12:w07, part=3, addr=0xc00f9f80, load , size=128, unknown  status = IN_PARTITION_DRAM (1154365), 

In Dram Latency Queue (total = 0): 
DRAM[3]: 16 bks, busW=4 BL=8 CL=12, tRRD=2 tCCD=6, tRCD=12 tRAS=28 tRP=12 tRC=40
n_cmd=1244230 n_nop=1231559 n_act=234 n_pre=218 n_req=3056 n_rd=8155 n_write=4064 bw_util=0.01964
n_activity=37871 dram_eff=0.6453
bk0: 504a 1240640i bk1: 504a 1240080i bk2: 512a 1240501i bk3: 512a 1239950i bk4: 512a 1240420i bk5: 512a 1239863i bk6: 512a 1240436i bk7: 512a 1239903i bk8: 512a 1240435i bk9: 512a 1239899i bk10: 512a 1240322i bk11: 512a 1239783i bk12: 511a 1240454i bk13: 508a 1239941i bk14: 504a 1240450i bk15: 504a 1239932i 
dram_util_bins: 0 0 0 0 0 0 0 0 0 0
dram_eff_bins: 0 0 0 0 0 0 0 0 0 0
mrqq: max=18 avg=0.135392

========= L2 cache stats =========
L2_cache_bank[0]: Access = 6660, Miss = 1022, Miss_rate = 0.153, Pending_hits = 1370, Reservation_fails = 0
L2_cache_bank[1]: Access = 8156, Miss = 1021, Miss_rate = 0.125, Pending_hits = 1338, Reservation_fails = 0
L2_cache_bank[2]: Access = 8156, Miss = 1021, Miss_rate = 0.125, Pending_hits = 1323, Reservation_fails = 0
L2_cache_bank[3]: Access = 8156, Miss = 1021, Miss_rate = 0.125, Pending_hits = 1323, Reservation_fails = 0
L2_cache_bank[4]: Access = 8128, Miss = 1020, Miss_rate = 0.125, Pending_hits = 1316, Reservation_fails = 0
L2_cache_bank[5]: Access = 8128, Miss = 1020, Miss_rate = 0.125, Pending_hits = 1316, Reservation_fails = 0
L2_cache_bank[6]: Access = 8128, Miss = 1020, Miss_rate = 0.125, Pending_hits = 1316, Reservation_fails = 0
L2_cache_bank[7]: Access = 6604, Miss = 1020, Miss_rate = 0.154, Pending_hits = 654, Reservation_fails = 0
L2_total_cache_accesses = 62116
L2_total_cache_misses = 8165
[...]
maxmrqlatency = 114 
maxdqlatency = 0 
maxmflatency = 194603 
averagemflatency = 6018 
max_icnt2mem_latency = 194369 
max_icnt2sh_latency = 23848075 
mrq_lat_table:2228 	830 	630 	894 	2779 	2842 	2026 	0 	0 	0 	0 	0 	0 	0 	0 	0 	0 	0 	0 	0 	0 	0 	0 	0 	0 	0 	0 	0 	0 	0 	0 	0 	
dq_lat_table:0 	0 	0 	0 	0 	0 	0 	0 	0 	0 	0 	0 	0 	0 	0 	0 	0 	0 	0 	0 	0 	0 	0 	0 	0 	0 	0 	0 	0 	0 	0 	0 	
mf_lat_table:0 	0 	0 	0 	0 	0 	0 	234654 	672519 	437126 	44287 	53114 	89648 	46476 	11459 	22650 	44902 	16545 	0 	0 	0 	0 	0 	0 	0 	0 	0 	0 	0 	0 	0 	0 	
icnt2mem_lat_table:0 	0 	79422 	7607 	34180 	112104 	211763 	286276 	521469 	102478 	40522 	49228 	91830 	41110 	11493 	22610 	44900 	16500 	0 	0 	0 	0 	0 	0 	
icnt2sh_lat_table:0 	0 	1025443 	492036 	45343 	815 	15 	0 	0 	0 	0 	0 	0 	0 	0 	0 	0 	0 	1656 	1168 	5304 	9816 	18632 	39496 	
mf_lat_pw_table:33656 	0 	0 	0 	0 	0 	0 	549 	191 	568 	472 	284 	167 	256 	346 	718 	1327 	463 	0 	0 	0 	0 	0 	0 	0 	0 	0 	0 	0 	0 	0 	0 	
maximum concurrent accesses to same row:
dram[0]:        30        30        24        24        24        24        32        32        32        32        24        24        32        32        32        32 
dram[1]:        30        30        24        24        24        24        32        32        32        32        24        24        32        32        32        32 
dram[2]:        30        30        24        24        24        24        32        32        32        32        24        24        32        32        32        32 
dram[3]:        30        30        24        24        24        24        32        32        32        32        24        24        32        32        32        32 
maximum service time to same row:
dram[0]:    135462    135463    140671    140673    129043    129042    117224    117225    101597    101597     72941     72940    162909    162910    173329    173330 
dram[1]:    135463    135462    140671    140673    129042    129043    117224    117225    101597    101597     72940     72941    162909    162910    173329    173330 
dram[2]:    135462    135463    140672    140672    129042    129043    117224    117225    101597    101597     72940     72941    162909    162910    173329    173330 
dram[3]:    135463    135462    140672    140672    129042    129044    117224    117225    101597    101597     72941     72939    162909    162910    173329    173330 
average row accesses per activate:
dram[0]: 17.272728 17.181818 17.454546 17.454546 12.800000 12.800000 13.714286 13.714286 13.714286 13.714286 10.105263 10.105263 12.000000 12.000000 14.461538 14.461538 
dram[1]: 17.181818 17.181818 17.454546 17.454546 12.800000 12.800000 13.714286 13.714286 13.714286 13.714286 10.105263 10.105263 12.000000 12.000000 14.461538 14.461538 
dram[2]: 20.888889 20.888889 17.454546 17.454546 12.800000 12.800000 13.714286 13.714286 13.714286 13.714286 10.105263 10.105263 12.000000 12.000000 14.461538 14.461538 
dram[3]: 20.888889 20.888889 17.454546 17.454546 12.800000 12.800000 13.714286 13.714286 13.714286 13.714286 10.105263 10.105263 12.000000 12.000000 14.461538 14.461538 
average row locality = 12229/896 = 13.648438
number of total memory accesses made:
dram[0]:         0         0         0         0         0         0         0         0         0         0         0         0         0         0         0         0 
dram[1]:         0         0         0         0         0         0         0         0         0         0         0         0         0         0         0         0 
dram[2]:         0         0         0         0         0         0         0         0         0         0         0         0         0         0         0         0 
dram[3]:         0         0         0         0         0         0         0         0         0         0         0         0         0         0         0         0 
total accesses: 0
min_bank_accesses = 0!
min_chip_accesses = 0!
number of total read accesses:
dram[0]:       128       127       128       128       128       128       128       128       128       128       128       128       128       128       126       126 
dram[1]:       127       127       128       128       128       128       128       128       128       128       128       128       128       128       126       126 
dram[2]:       126       126       128       128       128       128       128       128       128       128       128       128       128       128       126       126 
dram[3]:       126       126       128       128       128       128       128       128       128       128       128       128       128       128       126       126 
total reads: 8165
bank skew: 128/126 = 1.02
chip skew: 2043/2040 = 1.00
number of total write accesses:
dram[0]:        62        62        64        64        64        64        64        64        64        64        64        64        64        64        62        62 
dram[1]:        62        62        64        64        64        64        64        64        64        64        64        64        64        64        62        62 
dram[2]:        62        62        64        64        64        64        64        64        64        64        64        64        64        64        62        62 
dram[3]:        62        62        64        64        64        64        64        64        64        64        64        64        64        64        62        62 
total reads: 4064
bank skew: 64/62 = 1.03
chip skew: 1016/1016 = 1.00
average mf latency per bank:
dram[0]:     738547    763906    891316    912066    837727    852995    932837    956404   1010721   1037358   1049560   1068944    485320    503161    567691    589588
dram[1]:     767210    767206    903296    901725    843018    849622    951112    946587   1033457   1025687   1067454   1064401    514341    507221    584492    589050
dram[2]:     775631    765116    911059    922241    853576    855755    951137    952128   1021823   1033600   1061389   1072493    505961    505598    590939    587559
dram[3]:     767032    705001    912647    837978    850382    775042    944286    868947   1023854    946722   1070474    971378    512877    466540    583442    541616
maximum mf latency per bank:
dram[0]:     181595    181568    178972    178956    194603    194599    194602    194598    194354    194336    191729    191726    178995    178995    181303    181296
dram[1]:     181581    181567    178952    178955    194585    194598    194599    194597    194347    194335    191727    191724    178992    178995    181296    181295
dram[2]:     181566    181578    178952    178952    194602    194588    194598    194603    194347    194334    191733    191717    178992    178994    181303    181288
dram[3]:     181574    181588    178947    178960    194586    194600    194603    194595    194347    194339    191729    191723    178991    178992    181300    181294
Memory Partition 0: 
Cache L2_bank_000:
MSHR contents

Cache L2_bank_001:
MSHR contents

In Dram Latency Queue (total = 0): 
DRAM[0]: 16 bks, busW=4 BL=8 CL=12, tRRD=2 tCCD=6, tRCD=12 tRAS=28 tRP=12 tRC=40
n_cmd=18071761 n_nop=18059069 n_act=236 n_pre=220 n_req=3059 n_rd=8172 n_write=4064 bw_util=0.001354
n_activity=38187 dram_eff=0.6408
bk0: 512a 18068117i bk1: 508a 18067581i bk2: 512a 18068016i bk3: 512a 18067460i bk4: 512a 18067911i bk5: 512a 18067378i bk6: 512a 18067963i bk7: 512a 18067421i bk8: 512a 18067959i bk9: 512a 18067416i bk10: 512a 18067824i bk11: 512a 18067284i bk12: 512a 18068042i bk13: 512a 18067476i bk14: 504a 18068072i bk15: 504a 18067501i 
dram_util_bins: 0 0 0 0 0 0 0 0 0 0
dram_eff_bins: 0 0 0 0 0 0 0 0 0 0
mrqq: max=18 avg=0.00932671
Memory Partition 1: 
Cache L2_bank_002:
MSHR contents

Cache L2_bank_003:
MSHR contents

In Dram Latency Queue (total = 0): 
DRAM[1]: 16 bks, busW=4 BL=8 CL=12, tRRD=2 tCCD=6, tRCD=12 tRAS=28 tRP=12 tRC=40
n_cmd=18071761 n_nop=18059071 n_act=237 n_pre=221 n_req=3058 n_rd=8168 n_write=4064 bw_util=0.001354
n_activity=38121 dram_eff=0.6417
bk0: 508a 18068113i bk1: 508a 18067575i bk2: 512a 18068005i bk3: 512a 18067459i bk4: 512a 18067930i bk5: 512a 18067377i bk6: 512a 18067949i bk7: 512a 18067423i bk8: 512a 18067949i bk9: 512a 18067420i bk10: 512a 18067832i bk11: 512a 18067293i bk12: 512a 18068025i bk13: 512a 18067495i bk14: 504a 18068035i bk15: 504a 18067499i 
dram_util_bins: 0 0 0 0 0 0 0 0 0 0
dram_eff_bins: 0 0 0 0 0 0 0 0 0 0
mrqq: max=21 avg=0.0093536
Memory Partition 2: 
Cache L2_bank_004:
MSHR contents

Cache L2_bank_005:
MSHR contents

In Dram Latency Queue (total = 0): 
DRAM[2]: 16 bks, busW=4 BL=8 CL=12, tRRD=2 tCCD=6, tRCD=12 tRAS=28 tRP=12 tRC=40
n_cmd=18071761 n_nop=18059085 n_act=234 n_pre=218 n_req=3056 n_rd=8160 n_write=4064 bw_util=0.001353
n_activity=37888 dram_eff=0.6453
bk0: 504a 18068157i bk1: 504a 18067594i bk2: 512a 18068035i bk3: 512a 18067469i bk4: 512a 18067944i bk5: 512a 18067383i bk6: 512a 18067962i bk7: 512a 18067423i bk8: 512a 18067964i bk9: 512a 18067421i bk10: 512a 18067844i bk11: 512a 18067293i bk12: 512a 18067990i bk13: 512a 18067434i bk14: 504a 18067985i bk15: 504a 18067460i 
dram_util_bins: 0 0 0 0 0 0 0 0 0 0
dram_eff_bins: 0 0 0 0 0 0 0 0 0 0
mrqq: max=14 avg=0.00924996
Memory Partition 3: 
Cache L2_bank_006:
MSHR contents

Cache L2_bank_007:
MSHR contents

In Dram Latency Queue (total = 0): 
DRAM[3]: 16 bks, busW=4 BL=8 CL=12, tRRD=2 tCCD=6, tRCD=12 tRAS=28 tRP=12 tRC=40
n_cmd=18071761 n_nop=18059085 n_act=234 n_pre=218 n_req=3056 n_rd=8160 n_write=4064 bw_util=0.001353
n_activity=37892 dram_eff=0.6452
bk0: 504a 18068171i bk1: 504a 18067611i bk2: 512a 18068032i bk3: 512a 18067481i bk4: 512a 18067951i bk5: 512a 18067394i bk6: 512a 18067967i bk7: 512a 18067434i bk8: 512a 18067966i bk9: 512a 18067430i bk10: 512a 18067853i bk11: 512a 18067314i bk12: 512a 18067983i bk13: 512a 18067462i bk14: 504a 18067981i bk15: 504a 18067463i 
dram_util_bins: 0 0 0 0 0 0 0 0 0 0
dram_eff_bins: 0 0 0 0 0 0 0 0 0 0
mrqq: max=18 avg=0.00932167

========= L2 cache stats =========
L2_cache_bank[0]: Access = 178364, Miss = 1022, Miss_rate = 0.006, Pending_hits = 1370, Reservation_fails = 0
L2_cache_bank[1]: Access = 219484, Miss = 1021, Miss_rate = 0.005, Pending_hits = 1338, Reservation_fails = 0
L2_cache_bank[2]: Access = 219484, Miss = 1021, Miss_rate = 0.005, Pending_hits = 1323, Reservation_fails = 0
L2_cache_bank[3]: Access = 219484, Miss = 1021, Miss_rate = 0.005, Pending_hits = 1323, Reservation_fails = 0
L2_cache_bank[4]: Access = 219456, Miss = 1020, Miss_rate = 0.005, Pending_hits = 1316, Reservation_fails = 0
L2_cache_bank[5]: Access = 219456, Miss = 1020, Miss_rate = 0.005, Pending_hits = 1316, Reservation_fails = 0
L2_cache_bank[6]: Access = 219456, Miss = 1020, Miss_rate = 0.005, Pending_hits = 1316, Reservation_fails = 0
L2_cache_bank[7]: Access = 178308, Miss = 1020, Miss_rate = 0.006, Pending_hits = 654, Reservation_fails = 0
L2_total_cache_accesses = 1673492
L2_total_cache_misses = 8165
L2_total_cache_miss_rate = 0.0049
L2_total_cache_pending_hits = 9956
L2_total_cache_reservation_fails = 0
L2_total_cache_breakdown:
	L2_cache_stats_breakdown[GLOBAL_ACC_R][HIT] = 1549662
	L2_cache_stats_breakdown[GLOBAL_ACC_R][HIT_RESERVED] = 9866
	L2_cache_stats_breakdown[GLOBAL_ACC_R][MISS] = 4096
	L2_cache_stats_breakdown[GLOBAL_ACC_R][RESERVATION_FAIL] = 0
	L2_cache_stats_breakdown[LOCAL_ACC_R][HIT] = 0
	L2_cache_stats_breakdown[LOCAL_ACC_R][HIT_RESERVED] = 0
	L2_cache_stats_breakdown[LOCAL_ACC_R][MISS] = 0
	L2_cache_stats_breakdown[LOCAL_ACC_R][RESERVATION_FAIL] = 0
	L2_cache_stats_breakdown[CONST_ACC_R][HIT] = 0
	L2_cache_stats_breakdown[CONST_ACC_R][HIT_RESERVED] = 27
	L2_cache_stats_breakdown[CONST_ACC_R][MISS] = 1
	L2_cache_stats_breakdown[CONST_ACC_R][RESERVATION_FAIL] = 0
	L2_cache_stats_breakdown[TEXTURE_ACC_R][HIT] = 0
	L2_cache_stats_breakdown[TEXTURE_ACC_R][HIT_RESERVED] = 0
	L2_cache_stats_breakdown[TEXTURE_ACC_R][MISS] = 0
	L2_cache_stats_breakdown[TEXTURE_ACC_R][RESERVATION_FAIL] = 0
	L2_cache_stats_breakdown[GLOBAL_ACC_W][HIT] = 105664
	L2_cache_stats_breakdown[GLOBAL_ACC_W][HIT_RESERVED] = 0
	L2_cache_stats_breakdown[GLOBAL_ACC_W][MISS] = 4064
	L2_cache_stats_breakdown[GLOBAL_ACC_W][RESERVATION_FAIL] = 0
	L2_cache_stats_breakdown[LOCAL_ACC_W][HIT] = 0
	L2_cache_stats_breakdown[LOCAL_ACC_W][HIT_RESERVED] = 0
	L2_cache_stats_breakdown[LOCAL_ACC_W][MISS] = 0
	L2_cache_stats_breakdown[LOCAL_ACC_W][RESERVATION_FAIL] = 0
	L2_cache_stats_breakdown[L1_WRBK_ACC][HIT] = 0
	L2_cache_stats_breakdown[L1_WRBK_ACC][HIT_RESERVED] = 0
	L2_cache_stats_breakdown[L1_WRBK_ACC][MISS] = 0
	L2_cache_stats_breakdown[L1_WRBK_ACC][RESERVATION_FAIL] = 0
	L2_cache_stats_breakdown[L2_WRBK_ACC][HIT] = 0
	L2_cache_stats_breakdown[L2_WRBK_ACC][HIT_RESERVED] = 0
	L2_cache_stats_breakdown[L2_WRBK_ACC][MISS] = 0
	L2_cache_stats_breakdown[L2_WRBK_ACC][RESERVATION_FAIL] = 0
	L2_cache_stats_breakdown[INST_ACC_R][HIT] = 45
	L2_cache_stats_breakdown[INST_ACC_R][HIT_RESERVED] = 63
	L2_cache_stats_breakdown[INST_ACC_R][MISS] = 4
	L2_cache_stats_breakdown[INST_ACC_R][RESERVATION_FAIL] = 0
	L2_cache_stats_breakdown[L1_WR_ALLOC_R][HIT] = 0
	L2_cache_stats_breakdown[L1_WR_ALLOC_R][HIT_RESERVED] = 0
	L2_cache_stats_breakdown[L1_WR_ALLOC_R][MISS] = 0
	L2_cache_stats_breakdown[L1_WR_ALLOC_R][RESERVATION_FAIL] = 0
	L2_cache_stats_breakdown[L2_WR_ALLOC_R][HIT] = 0
	L2_cache_stats_breakdown[L2_WR_ALLOC_R][HIT_RESERVED] = 0
	L2_cache_stats_breakdown[L2_WR_ALLOC_R][MISS] = 0
	L2_cache_stats_breakdown[L2_WR_ALLOC_R][RESERVATION_FAIL] = 0
	L2_cache_stats_breakdown[GLOBAL_ACC_R][TOTAL_ACCESS] = 1563624
	L2_cache_stats_breakdown[CONST_ACC_R][TOTAL_ACCESS] = 28
	L2_cache_stats_breakdown[GLOBAL_ACC_W][TOTAL_ACCESS] = 109728
	L2_cache_stats_breakdown[INST_ACC_R][TOTAL_ACCESS] = 112
L2_cache_data_port_util = 0.063
L2_cache_fill_port_util = 0.000

icnt_total_pkts_mem_to_simt=6200276
icnt_total_pkts_simt_to_mem=2112404
LD_mem_lat_dist  0 0 0 0 0 0 0 0 0 0 0 0 0 0 0 0 0 0 0 0 0 0 0 0 0 0 0
ST_mem_lat_dist  0 0 0 0 0 0 0 0 0 0 0 0 0 0 0 0 0 0 0 0 0 0 0 0 0 0 0
----------------------------Interconnect-DETAILS--------------------------------
Class 0:
Packet latency average = 203.242
	minimum = 6
	maximum = 1734
Network latency average = 107.857
	minimum = 6
	maximum = 1584
Slowest packet = 3286174
Flit latency average = 48.2074
	minimum = 6
	maximum = 1584
Slowest flit = 8262712
Fragmentation average = 0.0209597
	minimum = 0
	maximum = 673
Injected packet rate average = 0.00355842
	minimum = 0 (at node 36)
	maximum = 0.011667 (at node 29)
Accepted packet rate average = 0.00355842
	minimum = 0 (at node 36)
	maximum = 0.011667 (at node 29)
Injected flit rate average = 0.00883772
	minimum = 0 (at node 36)
	maximum = 0.0422927 (at node 29)
Accepted flit rate average= 0.00883772
	minimum = 0 (at node 36)
	maximum = 0.0145837 (at node 29)
Injected packet length average = 2.48361
Accepted packet length average = 2.48361
Total in-flight flits = 0 (0 measured)
====== Overall Traffic Statistics ======
====== Traffic class 0 ======
Packet latency average = 195.783 (54 samples)
	minimum = 6 (54 samples)
	maximum = 1797.2 (54 samples)
Network latency average = 103.87 (54 samples)
	minimum = 6 (54 samples)
	maximum = 1386.76 (54 samples)
Flit latency average = 46.5844 (54 samples)
	minimum = 6 (54 samples)
	maximum = 1386.76 (54 samples)
Fragmentation average = 0.0147258 (54 samples)
	minimum = 0 (54 samples)
	maximum = 401.019 (54 samples)
Injected packet rate average = 0.00349316 (54 samples)
	minimum = 0 (54 samples)
	maximum = 0.0114532 (54 samples)
Accepted packet rate average = 0.00349316 (54 samples)
	minimum = 0 (54 samples)
	maximum = 0.0114532 (54 samples)
Injected flit rate average = 0.00867568 (54 samples)
	minimum = 0 (54 samples)
	maximum = 0.0415191 (54 samples)
Accepted flit rate average = 0.00867568 (54 samples)
	minimum = 0 (54 samples)
	maximum = 0.0143164 (54 samples)
Injected packet size average = 2.48362 (54 samples)
Accepted packet size average = 2.48362 (54 samples)
Hops average = 1 (54 samples)
----------------------------END-of-Interconnect-DETAILS-------------------------


gpgpu_simulation_time = 0 days, 1 hrs, 26 min, 40 sec (5200 sec)
gpgpu_simulation_rate = 32359 (inst/sec)
gpgpu_simulation_rate = 4586 (cycle/sec)

GPGPU-Sim PTX: cudaLaunch for 0x0x400f19 (mode=performance simulation) on stream 0
GPGPU-Sim PTX: pushing kernel '_Z20Convolution2D_kernelPfS_' to stream 0, gridDim= (8,32,1) blockDim = (32,8,1) 
GPGPU-Sim uArch: Shader 21 bind to kernel 55 '_Z20Convolution2D_kernelPfS_'
GPGPU-Sim uArch: Shader 22 bind to kernel 55 '_Z20Convolution2D_kernelPfS_'
GPGPU-Sim uArch: Shader 23 bind to kernel 55 '_Z20Convolution2D_kernelPfS_'
GPGPU-Sim uArch: Shader 24 bind to kernel 55 '_Z20Convolution2D_kernelPfS_'
GPGPU-Sim uArch: Shader 25 bind to kernel 55 '_Z20Convolution2D_kernelPfS_'
GPGPU-Sim uArch: Shader 26 bind to kernel 55 '_Z20Convolution2D_kernelPfS_'
GPGPU-Sim uArch: Shader 27 bind to kernel 55 '_Z20Convolution2D_kernelPfS_'
GPGPU-Sim uArch: Shader 0 bind to kernel 55 '_Z20Convolution2D_kernelPfS_'
GPGPU-Sim uArch: Shader 1 bind to kernel 55 '_Z20Convolution2D_kernelPfS_'
GPGPU-Sim uArch: Shader 2 bind to kernel 55 '_Z20Convolution2D_kernelPfS_'
GPGPU-Sim uArch: Shader 3 bind to kernel 55 '_Z20Convolution2D_kernelPfS_'
GPGPU-Sim uArch: Shader 4 bind to kernel 55 '_Z20Convolution2D_kernelPfS_'
GPGPU-Sim uArch: Shader 5 bind to kernel 55 '_Z20Convolution2D_kernelPfS_'
GPGPU-Sim uArch: Shader 6 bind to kernel 55 '_Z20Convolution2D_kernelPfS_'
GPGPU-Sim uArch: Shader 7 bind to kernel 55 '_Z20Convolution2D_kernelPfS_'
GPGPU-Sim uArch: Shader 8 bind to kernel 55 '_Z20Convolution2D_kernelPfS_'
GPGPU-Sim uArch: Shader 9 bind to kernel 55 '_Z20Convolution2D_kernelPfS_'
GPGPU-Sim uArch: Shader 10 bind to kernel 55 '_Z20Convolution2D_kernelPfS_'
GPGPU-Sim uArch: Shader 11 bind to kernel 55 '_Z20Convolution2D_kernelPfS_'
GPGPU-Sim uArch: Shader 12 bind to kernel 55 '_Z20Convolution2D_kernelPfS_'
GPGPU-Sim uArch: Shader 13 bind to kernel 55 '_Z20Convolution2D_kernelPfS_'
GPGPU-Sim uArch: Shader 14 bind to kernel 55 '_Z20Convolution2D_kernelPfS_'
GPGPU-Sim uArch: Shader 15 bind to kernel 55 '_Z20Convolution2D_kernelPfS_'
GPGPU-Sim uArch: Shader 16 bind to kernel 55 '_Z20Convolution2D_kernelPfS_'
GPGPU-Sim uArch: Shader 17 bind to kernel 55 '_Z20Convolution2D_kernelPfS_'
GPGPU-Sim uArch: Shader 18 bind to kernel 55 '_Z20Convolution2D_kernelPfS_'
GPGPU-Sim uArch: Shader 19 bind to kernel 55 '_Z20Convolution2D_kernelPfS_'
GPGPU-Sim uArch: Shader 20 bind to kernel 55 '_Z20Convolution2D_kernelPfS_'
                                                                                                                                                                                                                                                                                                                                                                                                                                                                                                                                                                                                                                                                                                                                                                                                                                                                                                                                                                                                                                                                                                                                                                                                                                                                                                                                                                                                                                 