

        *** GPGPU-Sim Simulator Version 3.2.2  [build gpgpu-sim_git-commit-c46ada6511a85df09b4a05ed1260f0ff10279dc1_modified_597] ***


GPGPU-Sim PTX: simulation mode 0 (can change with PTX_SIM_MODE_FUNC environment variable:
               1=functional simulation only, 0=detailed performance simulator)
GPGPU-Sim: Configuration options:

-network_mode                           1 # Interconnection network mode
-inter_config_file   config_fermi_islip.icnt # Interconnection network config file
-gpgpu_ptx_use_cuobjdump                    1 # Use cuobjdump to extract ptx and sass from binaries
-gpgpu_experimental_lib_support                    0 # Try to extract code from cuda libraries [Broken because of unknown cudaGetExportTable]
-gpgpu_ptx_convert_to_ptxplus                    0 # Convert SASS (native ISA) to ptxplus and run ptxplus
-gpgpu_ptx_force_max_capability                   20 # Force maximum compute capability
-gpgpu_ptx_inst_debug_to_file                    0 # Dump executed instructions' debug information to file
-gpgpu_ptx_inst_debug_file       inst_debug.txt # Executed instructions' debug output file
-gpgpu_ptx_inst_debug_thread_uid                    1 # Thread UID for executed instructions' debug output
-gpgpu_simd_model                       1 # 1 = post-dominator
-gpgpu_shader_core_pipeline              2048:32 # shader core pipeline config, i.e., {<nthread>:<warpsize>}
-gpgpu_tex_cache:l1  16:128:24,L:R:m:N:L,F:128:4,128:2 # per-shader L1 texture cache  (READ-ONLY) config  {<nsets>:<bsize>:<assoc>,<rep>:<wr>:<alloc>:<wr_alloc>,<mshr>:<N>:<merge>,<mq>:<rf>}
-gpgpu_const_cache:l1 128:64:2,L:R:f:N:L,A:2:64,4 # per-shader L1 constant memory cache  (READ-ONLY) config  {<nsets>:<bsize>:<assoc>,<rep>:<wr>:<alloc>:<wr_alloc>,<mshr>:<N>:<merge>,<mq>} 
-gpgpu_cache:il1     8:128:4,L:R:f:N:L,A:2:48,4 # shader L1 instruction cache config  {<nsets>:<bsize>:<assoc>,<rep>:<wr>:<alloc>:<wr_alloc>,<mshr>:<N>:<merge>,<mq>} 
-gpgpu_cache:dl1     64:128:6,L:L:m:N:H,A:128:8,8 # per-shader L1 data cache config  {<nsets>:<bsize>:<assoc>,<rep>:<wr>:<alloc>:<wr_alloc>,<mshr>:<N>:<merge>,<mq> | none}
-gpgpu_cache:dl1PrefL1                 none # per-shader L1 data cache config  {<nsets>:<bsize>:<assoc>,<rep>:<wr>:<alloc>:<wr_alloc>,<mshr>:<N>:<merge>,<mq> | none}
-gpgpu_cache:dl1PrefShared                 none # per-shader L1 data cache config  {<nsets>:<bsize>:<assoc>,<rep>:<wr>:<alloc>:<wr_alloc>,<mshr>:<N>:<merge>,<mq> | none}
-gmem_skip_L1D                          1 # global memory access skip L1D cache (implements -Xptxas -dlcm=cg, default=no skip)
-gpgpu_perfect_mem                      0 # enable perfect memory mode (no cache miss)
-n_regfile_gating_group                    4 # group of lanes that should be read/written together)
-gpgpu_clock_gated_reg_file                    0 # enable clock gated reg file for power calculations
-gpgpu_clock_gated_lanes                    0 # enable clock gated lanes for power calculations
-gpgpu_shader_registers                65536 # Number of registers per shader core. Limits number of concurrent CTAs. (default 8192)
-gpgpu_shader_cta                      32 # Maximum number of concurrent CTAs in shader (default 8)
-gpgpu_num_cta_barriers                   16 # Maximum number of named barriers per CTA (default 16)
-gpgpu_n_clusters                      28 # number of processing clusters
-gpgpu_n_cores_per_cluster                    1 # number of simd cores per cluster
-gpgpu_n_cluster_ejection_buffer_size                    8 # number of packets in ejection buffer
-gpgpu_n_ldst_response_buffer_size                    2 # number of response packets in ld/st unit ejection buffer
-gpgpu_shmem_size                   16384 # Size of shared memory per shader core (default 16kB)
-gpgpu_shmem_size                   98304 # Size of shared memory per shader core (default 16kB)
-gpgpu_shmem_size_PrefL1                16384 # Size of shared memory per shader core (default 16kB)
-gpgpu_shmem_size_PrefShared                16384 # Size of shared memory per shader core (default 16kB)
-gpgpu_shmem_num_banks                   32 # Number of banks in the shared memory in each shader core (default 16)
-gpgpu_shmem_limited_broadcast                    0 # Limit shared memory to do one broadcast per cycle (default on)
-gpgpu_shmem_warp_parts                    1 # Number of portions a warp is divided into for shared memory bank conflict check 
-gpgpu_warpdistro_shader                   -1 # Specify which shader core to collect the warp size distribution from
-gpgpu_warp_issue_shader                    0 # Specify which shader core to collect the warp issue distribution from
-gpgpu_local_mem_map                    1 # Mapping from local memory space address to simulated GPU physical address space (default = enabled)
-gpgpu_num_reg_banks                   32 # Number of register banks (default = 8)
-gpgpu_reg_bank_use_warp_id                    0 # Use warp ID in mapping registers to banks (default = off)
-gpgpu_operand_collector_num_units_sp                   20 # number of collector units (default = 4)
-gpgpu_operand_collector_num_units_sfu                    4 # number of collector units (default = 4)
-gpgpu_operand_collector_num_units_mem                    8 # number of collector units (default = 2)
-gpgpu_operand_collector_num_units_gen                    0 # number of collector units (default = 0)
-gpgpu_operand_collector_num_in_ports_sp                    4 # number of collector unit in ports (default = 1)
-gpgpu_operand_collector_num_in_ports_sfu                    1 # number of collector unit in ports (default = 1)
-gpgpu_operand_collector_num_in_ports_mem                    1 # number of collector unit in ports (default = 1)
-gpgpu_operand_collector_num_in_ports_gen                    0 # number of collector unit in ports (default = 0)
-gpgpu_operand_collector_num_out_ports_sp                    4 # number of collector unit in ports (default = 1)
-gpgpu_operand_collector_num_out_ports_sfu                    1 # number of collector unit in ports (default = 1)
-gpgpu_operand_collector_num_out_ports_mem                    1 # number of collector unit in ports (default = 1)
-gpgpu_operand_collector_num_out_ports_gen                    0 # number of collector unit in ports (default = 0)
-gpgpu_coalesce_arch                   13 # Coalescing arch (default = 13, anything else is off for now)
-gpgpu_num_sched_per_core                    2 # Number of warp schedulers per core
-gpgpu_max_insn_issue_per_warp                    2 # Max number of instructions that can be issued per warp in one cycle by scheduler
-gpgpu_simt_core_sim_order                    1 # Select the simulation order of cores in a cluster (0=Fix, 1=Round-Robin)
-gpgpu_pipeline_widths        4,1,1,4,1,1,6 # Pipeline widths ID_OC_SP,ID_OC_SFU,ID_OC_MEM,OC_EX_SP,OC_EX_SFU,OC_EX_MEM,EX_WB
-gpgpu_num_sp_units                     4 # Number of SP units (default=1)
-gpgpu_num_sfu_units                    1 # Number of SF units (default=1)
-gpgpu_num_mem_units                    1 # Number if ldst units (default=1) WARNING: not hooked up to anything
-gpgpu_scheduler                      gto # Scheduler configuration: < lrr | gto | two_level_active > If two_level_active:<num_active_warps>:<inner_prioritization>:<outer_prioritization>For complete list of prioritization values see shader.h enum scheduler_prioritization_typeDefault: gto
-gpgpu_concurrent_kernel_sm                    0 # Support concurrent kernels on a SM (default = disabled)
-tlb_size                              16 # Number of tlb entries per SM.
-gpgpu_dram_scheduler                    1 # 0 = fifo, 1 = FR-FCFS (defaul)
-gpgpu_dram_partition_queues              8:8:8:8 # i2$:$2d:d2$:$2i
-l2_ideal                               0 # Use a ideal L2 cache that always hit
-gpgpu_cache:dl2     64:128:16,L:B:m:W:L,A:1024:1024,4:0,32 # unified banked L2 data cache config  {<nsets>:<bsize>:<assoc>,<rep>:<wr>:<alloc>:<wr_alloc>,<mshr>:<N>:<merge>,<mq>}
-gpgpu_cache:dl2_texture_only                    0 # L2 cache used for texture only
-gpgpu_n_mem                            4 # number of memory modules (e.g. memory controllers) in gpu
-gpgpu_n_sub_partition_per_mchannel                    2 # number of memory subpartition in each memory module
-gpgpu_n_mem_per_ctrlr                    1 # number of memory chips per memory controller
-gpgpu_memlatency_stat                   14 # track and display latency statistics 0x2 enables MC, 0x4 enables queue logs
-gpgpu_frfcfs_dram_sched_queue_size                   64 # 0 = unlimited (default); # entries per chip
-gpgpu_dram_return_queue_size                  116 # 0 = unlimited (default); # entries per chip
-gpgpu_dram_buswidth                    4 # default = 4 bytes (8 bytes per cycle at DDR)
-gpgpu_dram_burst_length                    8 # Burst length of each DRAM request (default = 4 data bus cycle)
-dram_data_command_freq_ratio                    4 # Frequency ratio between DRAM data bus and command bus (default = 2 times, i.e. DDR)
-gpgpu_dram_timing_opt nbk=16:CCD=2:RRD=6:RCD=12:RAS=28:RP=12:RC=40: CL=12:WL=4:CDLR=5:WR=12:nbkgrp=1:CCDL=0:RTPL=0 # DRAM timing parameters = {nbk:tCCD:tRRD:tRCD:tRAS:tRP:tRC:CL:WL:tCDLR:tWR:nbkgrp:tCCDL:tRTPL}
-rop_latency                          120 # ROP queue latency (default 85)
-dram_latency                         100 # DRAM latency (default 30)
-gpgpu_mem_addr_mapping dramid@8;00000000.00000000.00000000.00000000.0000RRRR.RRRRRRRR.RBBBCCCC.BCCSSSSS # mapping memory address to dram model {dramid@<start bit>;<memory address map>}
-gpgpu_mem_addr_test                    0 # run sweep test to check address mapping for aliased address
-gpgpu_mem_address_mask                    1 # 0 = old addressing mask, 1 = new addressing mask, 2 = new add. mask + flipped bank sel and chip sel bits
-gpuwattch_xml_file  gpuwattch_geforcegtx1080ti.xml # GPUWattch XML file
-power_simulation_enabled                    1 # Turn on power simulator (1=On, 0=Off)
-power_per_cycle_dump                    0 # Dump detailed power output each cycle
-power_trace_enabled                    0 # produce a file for the power trace (1=On, 0=Off)
-power_trace_zlevel                     6 # Compression level of the power trace output log (0=no comp, 9=highest)
-steady_power_levels_enabled                    0 # produce a file for the steady power levels (1=On, 0=Off)
-steady_state_definition                  8:4 # allowed deviation:number of samples
-gpgpu_max_cycle                        0 # terminates gpu simulation early (0 = no limit)
-gpgpu_max_insn                         0 # terminates gpu simulation early (0 = no limit)
-gpgpu_max_cta                          0 # terminates gpu simulation early (0 = no limit)
-gpgpu_runtime_stat                   500 # display runtime statistics such as dram utilization {<freq>:<flag>}
-liveness_message_freq                    1 # Minimum number of seconds between simulation liveness messages (0 = always print)
-gpgpu_flush_l1_cache                    0 # Flush L1 cache at the end of each kernel call
-gpgpu_flush_l2_cache                    0 # Flush L2 cache at the end of each kernel call
-gpgpu_deadlock_detect                    0 # Stop the simulation at deadlock (1=on (default), 0=off)
-gpgpu_ptx_instruction_classification                    0 # if enabled will classify ptx instruction types per kernel (Max 255 kernels now)
-gpgpu_ptx_sim_mode                     0 # Select between Performance (default) or Functional simulation (1)
-gpgpu_clock_domains 1481.0:2962.0:1481.0:2750.0 # Clock Domain Frequencies in MhZ {<Core Clock>:<ICNT Clock>:<L2 Clock>:<DRAM Clock>}
-gpgpu_max_concurrent_kernel                    8 # maximum kernels that can run concurrently on GPU
-gpgpu_cflog_interval                    0 # Interval between each snapshot in control flow logger
-visualizer_enabled                     0 # Turn on visualizer output (1=On, 0=Off)
-visualizer_outputfile                 NULL # Specifies the output log file for visualizer
-visualizer_zlevel                      6 # Compression level of the visualizer output log (0=no comp, 9=highest)
-trace_enabled                          0 # Turn on traces
-trace_components                    none # comma seperated list of traces to enable. Complete list found in trace_streams.tup. Default none
-trace_sampling_core                    0 # The core which is printed using CORE_DPRINTF. Default 0
-trace_sampling_memory_partition                   -1 # The memory partition which is printed using MEMPART_DPRINTF. Default -1 (i.e. all)
-gddr_size                          256MB # Size of GDDR in MB/GB.(GLOBAL_HEAP_START, GLOBAL_HEAP_START + gddr_size) would be used for unmanged memory, (GLOBAL_HEAP_START + gddr_size, GLOBAL_HEAP_START + gddr_size*2) would be used for managed memory. 
-page_table_walk_latency                  100 # Average page table walk latency (in core cycle).
-eviction_policy                        5 # Select page eviction policy
-invalidate_clean                       0 # Should directly invalidate clean pages
-reserve_accessed_page_percent                    0 # Percentage of accessed pages reserved from eviction in hope that they will be accessed in next iteration.
-percentage_of_free_page_buffer                    0 # Percentage of free page buffer to trigger the page eviction.
-page_size                            4KB # GDDR page size, only 4KB/2MB avaliable.
-pcie_bandwidth                  16.0GB/s # PCI-e bandwidth per direction, in GB/s.
-enable_dma                             0 # Enable direct access to CPU memory
-multiply_dma_penalty                    2 # Oversubscription Multiplicative Penalty Factor for Adaptive DMA
-migrate_threshold                      8 # Access counter threshold for migrating the page from cpu to gpu
-sim_prof_enable                        1 # Enable gpgpu-sim profiler
-hardware_prefetch                      1 # Select gpgpu-sim hardware prefetcher
-hwprefetch_oversub                     1 # Select gpgpu-sim hardware prefetcher under over-subscription
-page_fault_latency                 66645 # Average fault latency (in core cycle).
-enable_accurate_simulation                    0 # Enable page fault functional simulation.
-enable_smart_runtime                    0 # Enable access pattern detection, policy engine, and adaptive memory management.
-enable_ptx_file_line_stats                    1 # Turn on PTX source line statistic profiling. (1 = On)
-ptx_line_stats_filename gpgpu_inst_stats.txt # Output file for PTX source line statistics.
-gpgpu_kernel_launch_latency               222150 # Kernel launch latency in cycles. Default: 0
-gpgpu_cdp_enabled                      0 # Turn on CDP
-save_embedded_ptx                      0 # saves ptx files embedded in binary as <n>.ptx
-keep                                   0 # keep intermediate files created by GPGPU-Sim when interfacing with external programs
-gpgpu_ptx_save_converted_ptxplus                    0 # Saved converted ptxplus to a file
-ptx_opcode_latency_int         4,13,4,5,145 # Opcode latencies for integers <ADD,MAX,MUL,MAD,DIV>Default 1,1,19,25,145
-ptx_opcode_latency_fp          4,13,4,5,39 # Opcode latencies for single precision floating points <ADD,MAX,MUL,MAD,DIV>Default 1,1,1,1,30
-ptx_opcode_latency_dp         8,19,8,8,330 # Opcode latencies for double precision floating points <ADD,MAX,MUL,MAD,DIV>Default 8,8,8,8,335
-ptx_opcode_initiation_int            1,2,2,2,8 # Opcode initiation intervals for integers <ADD,MAX,MUL,MAD,DIV>Default 1,1,4,4,32
-ptx_opcode_initiation_fp            1,2,1,1,4 # Opcode initiation intervals for single precision floating points <ADD,MAX,MUL,MAD,DIV>Default 1,1,1,1,5
-ptx_opcode_initiation_dp          1,2,1,1,130 # Opcode initiation intervals for double precision floating points <ADD,MAX,MUL,MAD,DIV>Default 8,8,8,8,130
-cdp_latency         7200,8000,100,12000,1600 # CDP API latency <cudaStreamCreateWithFlags, cudaGetParameterBufferV2_init_perWarp, cudaGetParameterBufferV2_perKernel, cudaLaunchDeviceV2_init_perWarp, cudaLaunchDevicV2_perKernel>Default 7200,8000,100,12000,1600
DRAM Timing Options:
nbk                                    16 # number of banks
CCD                                     2 # column to column delay
RRD                                     6 # minimal delay between activation of rows in different banks
RCD                                    12 # row to column delay
RAS                                    28 # time needed to activate row
RP                                     12 # time needed to precharge (deactivate) row
RC                                     40 # row cycle time
CDLR                                    5 # switching from write to read (changes tWTR)
WR                                     12 # last data-in to row precharge
CL                                     12 # CAS latency
WL                                      4 # Write latency
nbkgrp                                  1 # number of bank groups
CCDL                                    0 # column to column delay between accesses to different bank groups
RTPL                                    0 # read to precharge delay between accesses to different bank groups
Total number of memory sub partition = 8
addr_dec_mask[CHIP]  = 0000000000000300 	high:10 low:8
addr_dec_mask[BK]    = 000000000001c080 	high:17 low:7
addr_dec_mask[ROW]   = 000000003ffe0000 	high:30 low:17
addr_dec_mask[COL]   = 0000000000003c7f 	high:14 low:0
addr_dec_mask[BURST] = 000000000000001f 	high:5 low:0
sub_partition_id_mask = 0000000000000080
GPGPU-Sim uArch: clock freqs: 1481000000.000000:2962000000.000000:1481000000.000000:2750000000.000000
GPGPU-Sim uArch: clock periods: 0.00000000067521944632:0.00000000033760972316:0.00000000067521944632:0.00000000036363636364
*** Initializing Memory Statistics ***
GPGPU-Sim uArch: interconnect node map (shaderID+MemID to icntID)
GPGPU-Sim uArch: Memory nodes ID start from index: 28
GPGPU-Sim uArch:    0   1   2   3   4   5   6
GPGPU-Sim uArch:    7   8   9  10  11  12  13
GPGPU-Sim uArch:   14  15  16  17  18  19  20
GPGPU-Sim uArch:   21  22  23  24  25  26  27
GPGPU-Sim uArch:   28  29  30  31  32  33  34
GPGPU-Sim uArch:   35  36  37  38  39  40  41
GPGPU-Sim uArch:   42  43  44  45  46  47  48
GPGPU-Sim uArch:   49
GPGPU-Sim uArch: interconnect node reverse map (icntID to shaderID+MemID)
GPGPU-Sim uArch: Memory nodes start from ID: 28
GPGPU-Sim uArch:    0   1   2   3   4   5   6
GPGPU-Sim uArch:    7   8   9  10  11  12  13
GPGPU-Sim uArch:   14  15  16  17  18  19  20
GPGPU-Sim uArch:   21  22  23  24  25  26  27
GPGPU-Sim uArch:   28  29  30  31  32  33  34
GPGPU-Sim uArch:   35  36  37  38  39  40  41
GPGPU-Sim uArch:   42  43  44  45  46  47  48
GPGPU-Sim uArch:   49
c7b5af3d13ce826de5e26c66c7d67943  /root/uvmsmart/benchmarks/Managed/2DCONVSTREAM/2dconv
GPGPU-Sim uArch: performance model initialization complete.
GPGPU-Sim PTX: __cudaRegisterFatBinary, fat_cubin_handle = 1, filename=default
self exe links to: /root/uvmsmart/benchmarks/Managed/2DCONVSTREAM/2dconv
Running md5sum using "md5sum /root/uvmsmart/benchmarks/Managed/2DCONVSTREAM/2dconv "
Parsing file _cuobjdump_complete_output_NaC2hf
######### cuobjdump parser ########
## Adding new section ELF
Adding arch: sm_20
Adding identifier: default
## Adding new section ELF
Adding arch: sm_20
Adding identifier: default
## Adding new section PTX
Adding ptx filename: _cuobjdump_1.ptx
Adding arch: sm_20
Adding identifier: default
Done parsing!!!
GPGPU-Sim PTX: __cudaRegisterFunction _Z20Convolution2D_kernelPfS_ : hostFun 0x0x400f19, fat_cubin_handle = 1
GPGPU-Sim PTX: instruction assembly for function '_Z20Convolution2D_kernelPfS_'...   done.
GPGPU-Sim PTX: finding reconvergence points for '_Z20Convolution2D_kernelPfS_'...
GPGPU-Sim PTX: Finding dominators for '_Z20Convolution2D_kernelPfS_'...
GPGPU-Sim PTX: Finding immediate dominators for '_Z20Convolution2D_kernelPfS_'...
GPGPU-Sim PTX: Finding postdominators for '_Z20Convolution2D_kernelPfS_'...
GPGPU-Sim PTX: Finding immediate postdominators for '_Z20Convolution2D_kernelPfS_'...
GPGPU-Sim PTX: pre-decoding instructions for '_Z20Convolution2D_kernelPfS_'...
GPGPU-Sim PTX: reconvergence points for _Z20Convolution2D_kernelPfS_...
GPGPU-Sim PTX:  1 (potential) branch divergence @  PC=0x088 (_1.ptx:42) @!%p7 bra BB0_2;
GPGPU-Sim PTX:    immediate post dominator      @  PC=0x180 (_1.ptx:77) ret;
GPGPU-Sim PTX:  2 (potential) branch divergence @  PC=0x090 (_1.ptx:43) bra.uni BB0_1;
GPGPU-Sim PTX:    immediate post dominator      @  PC=0x098 (_1.ptx:46) cvta.to.global.u64 %rd3, %rd1;
GPGPU-Sim PTX: ... end of reconvergence points for _Z20Convolution2D_kernelPfS_
GPGPU-Sim PTX: ... done pre-decoding instructions for '_Z20Convolution2D_kernelPfS_'.
GPGPU-Sim PTX: finished parsing EMBEDDED .ptx file _1.ptx
Adding _cuobjdump_1.ptx with cubin handle 1
GPGPU-Sim PTX: extracting embedded .ptx to temporary file "_ptx_C4ATVC"
Running: cat _ptx_C4ATVC | sed 's/.version 1.5/.version 1.4/' | sed 's/, texmode_independent//' | sed 's/\(\.extern \.const\[1\] .b8 \w\+\)\[\]/\1\[1\]/' | sed 's/const\[.\]/const\[0\]/g' > _ptx2_fiZLz0
GPGPU-Sim PTX: generating ptxinfo using "$CUDA_INSTALL_PATH/bin/ptxas --gpu-name=sm_20 -v _ptx2_fiZLz0 --output-file  /dev/null 2> _ptx_C4ATVCinfo"
GPGPU-Sim PTX: Kernel '_Z20Convolution2D_kernelPfS_' : regs=16, lmem=0, smem=0, cmem=80
GPGPU-Sim PTX: removing ptxinfo using "rm -f _ptx_C4ATVC _ptx2_fiZLz0 _ptx_C4ATVCinfo"
GPGPU-Sim PTX: loading globals with explicit initializers... 
GPGPU-Sim PTX: finished loading globals (0 bytes total).
GPGPU-Sim PTX: loading constants with explicit initializers...  done.

GPGPU-Sim PTX: cudaLaunch for 0x0x400f19 (mode=performance simulation) on stream 0
GPGPU-Sim PTX: pushing kernel '_Z20Convolution2D_kernelPfS_' to stream 0, gridDim= (8,32,1) blockDim = (32,8,1) 
GPGPU-Sim uArch: Shader 1 bind to kernel 1 '_Z20Convolution2D_kernelPfS_'
GPGPU-Sim uArch: CTA/core = 8, limited by: threads
GPGPU-Sim uArch: Shader 2 bind to kernel 1 '_Z20Convolution2D_kernelPfS_'
GPGPU-Sim uArch: Shader 3 bind to kernel 1 '_Z20Convolution2D_kernelPfS_'
GPGPU-Sim uArch: Shader 4 bind to kernel 1 '_Z20Convolution2D_kernelPfS_'
GPGPU-Sim uArch: Shader 5 bind to kernel 1 '_Z20Convolution2D_kernelPfS_'
GPGPU-Sim uArch: Shader 6 bind to kernel 1 '_Z20Convolution2D_kernelPfS_'
GPGPU-Sim uArch: Shader 7 bind to kernel 1 '_Z20Convolution2D_kernelPfS_'
GPGPU-Sim uArch: Shader 8 bind to kernel 1 '_Z20Convolution2D_kernelPfS_'
GPGPU-Sim uArch: Shader 9 bind to kernel 1 '_Z20Convolution2D_kernelPfS_'
GPGPU-Sim uArch: Shader 10 bind to kernel 1 '_Z20Convolution2D_kernelPfS_'
GPGPU-Sim uArch: Shader 11 bind to kernel 1 '_Z20Convolution2D_kernelPfS_'
GPGPU-Sim uArch: Shader 12 bind to kernel 1 '_Z20Convolution2D_kernelPfS_'
GPGPU-Sim uArch: Shader 13 bind to kernel 1 '_Z20Convolution2D_kernelPfS_'
GPGPU-Sim uArch: Shader 14 bind to kernel 1 '_Z20Convolution2D_kernelPfS_'
GPGPU-Sim uArch: Shader 15 bind to kernel 1 '_Z20Convolution2D_kernelPfS_'
GPGPU-Sim uArch: Shader 16 bind to kernel 1 '_Z20Convolution2D_kernelPfS_'
GPGPU-Sim uArch: Shader 17 bind to kernel 1 '_Z20Convolution2D_kernelPfS_'
GPGPU-Sim uArch: Shader 18 bind to kernel 1 '_Z20Convolution2D_kernelPfS_'
GPGPU-Sim uArch: Shader 19 bind to kernel 1 '_Z20Convolution2D_kernelPfS_'
GPGPU-Sim uArch: Shader 20 bind to kernel 1 '_Z20Convolution2D_kernelPfS_'
GPGPU-Sim uArch: Shader 21 bind to kernel 1 '_Z20Convolution2D_kernelPfS_'
GPGPU-Sim uArch: Shader 22 bind to kernel 1 '_Z20Convolution2D_kernelPfS_'
GPGPU-Sim uArch: Shader 23 bind to kernel 1 '_Z20Convolution2D_kernelPfS_'
GPGPU-Sim uArch: Shader 24 bind to kernel 1 '_Z20Convolution2D_kernelPfS_'
GPGPU-Sim uArch: Shader 25 bind to kernel 1 '_Z20Convolution2D_kernelPfS_'
GPGPU-Sim uArch: Shader 26 bind to kernel 1 '_Z20Convolution2D_kernelPfS_'
GPGPU-Sim uArch: Shader 27 bind to kernel 1 '_Z20Convolution2D_kernelPfS_'
GPGPU-Sim uArch: Shader 0 bind to kernel 1 '_Z20Convolution2D_kernelPfS_'
Fault address : 0xc0000
GHB MISS, adding to GHB at position 0
Fault address : 0xc0003
GHB MISS, adding to GHB at position 1
Fault address : 0xc0011
GHB MISS, adding to GHB at position 2
Fault address : 0xc0020
GHB MISS, adding to GHB at position 3
Fault address : 0xc0032
GHB MISS, adding to GHB at position 4
Fault address : 0xc0040
GHB MISS, adding to GHB at position 5
Fault address : 0xc0050
GHB MISS, adding to GHB at position 6
Fault address : 0xc0060
GHB MISS, adding to GHB at position 7
Fault address : 0xc0070
GHB MISS, adding to GHB at position 8
Destroy streams for kernel 1: size 0
kernel_name = _Z20Convolution2D_kernelPfS_ 
kernel_launch_uid = 1 
gpu_sim_cycle = 92133
gpu_sim_insn = 3116148
gpu_ipc =      33.8223
gpu_tot_sim_cycle = 325128
gpu_tot_sim_insn = 3116148
gpu_tot_ipc =       9.5844
gpu_tot_issued_cta = 256
max_total_param_size = 0
gpu_stall_dramfull = 47037
gpu_stall_icnt2sh    = 37849
partiton_reqs_in_parallel = 690027
partiton_reqs_in_parallel_total    = 0
partiton_level_parallism =       7.4895
partiton_level_parallism_total  =       2.1223
partiton_reqs_in_parallel_util = 690027
partiton_reqs_in_parallel_util_total    = 0
gpu_sim_cycle_parition_util = 90841
gpu_tot_sim_cycle_parition_util    = 0
partiton_level_parallism_util =       7.5960
partiton_level_parallism_util_total  =       7.5960
partiton_replys_in_parallel = 31128
partiton_replys_in_parallel_total    = 0
L2_BW  =      32.0237 GB/Sec
L2_BW_total  =       9.0747 GB/Sec
gpu_total_sim_rate=3509

========= Core cache stats =========
L1I_cache:
	L1I_total_cache_accesses = 50976
	L1I_total_cache_misses = 2600
	L1I_total_cache_miss_rate = 0.0510
	L1I_total_cache_pending_hits = 0
	L1I_total_cache_reservation_fails = 6851
L1D_cache:
	L1D_cache_core[0]: Access = 0, Miss = 0, Miss_rate = -nan, Pending_hits = 0, Reservation_fails = 0
	L1D_cache_core[1]: Access = 0, Miss = 0, Miss_rate = -nan, Pending_hits = 0, Reservation_fails = 0
	L1D_cache_core[2]: Access = 0, Miss = 0, Miss_rate = -nan, Pending_hits = 0, Reservation_fails = 0
	L1D_cache_core[3]: Access = 0, Miss = 0, Miss_rate = -nan, Pending_hits = 0, Reservation_fails = 0
	L1D_cache_core[4]: Access = 0, Miss = 0, Miss_rate = -nan, Pending_hits = 0, Reservation_fails = 0
	L1D_cache_core[5]: Access = 0, Miss = 0, Miss_rate = -nan, Pending_hits = 0, Reservation_fails = 0
	L1D_cache_core[6]: Access = 0, Miss = 0, Miss_rate = -nan, Pending_hits = 0, Reservation_fails = 0
	L1D_cache_core[7]: Access = 0, Miss = 0, Miss_rate = -nan, Pending_hits = 0, Reservation_fails = 0
	L1D_cache_core[8]: Access = 0, Miss = 0, Miss_rate = -nan, Pending_hits = 0, Reservation_fails = 0
	L1D_cache_core[9]: Access = 0, Miss = 0, Miss_rate = -nan, Pending_hits = 0, Reservation_fails = 0
	L1D_cache_core[10]: Access = 0, Miss = 0, Miss_rate = -nan, Pending_hits = 0, Reservation_fails = 0
	L1D_cache_core[11]: Access = 0, Miss = 0, Miss_rate = -nan, Pending_hits = 0, Reservation_fails = 0
	L1D_cache_core[12]: Access = 0, Miss = 0, Miss_rate = -nan, Pending_hits = 0, Reservation_fails = 0
	L1D_cache_core[13]: Access = 0, Miss = 0, Miss_rate = -nan, Pending_hits = 0, Reservation_fails = 0
	L1D_cache_core[14]: Access = 0, Miss = 0, Miss_rate = -nan, Pending_hits = 0, Reservation_fails = 0
	L1D_cache_core[15]: Access = 0, Miss = 0, Miss_rate = -nan, Pending_hits = 0, Reservation_fails = 0
	L1D_cache_core[16]: Access = 0, Miss = 0, Miss_rate = -nan, Pending_hits = 0, Reservation_fails = 0
	L1D_cache_core[17]: Access = 0, Miss = 0, Miss_rate = -nan, Pending_hits = 0, Reservation_fails = 0
	L1D_cache_core[18]: Access = 0, Miss = 0, Miss_rate = -nan, Pending_hits = 0, Reservation_fails = 0
	L1D_cache_core[19]: Access = 0, Miss = 0, Miss_rate = -nan, Pending_hits = 0, Reservation_fails = 0
	L1D_cache_core[20]: Access = 0, Miss = 0, Miss_rate = -nan, Pending_hits = 0, Reservation_fails = 0
	L1D_cache_core[21]: Access = 0, Miss = 0, Miss_rate = -nan, Pending_hits = 0, Reservation_fails = 0
	L1D_cache_core[22]: Access = 0, Miss = 0, Miss_rate = -nan, Pending_hits = 0, Reservation_fails = 0
	L1D_cache_core[23]: Access = 0, Miss = 0, Miss_rate = -nan, Pending_hits = 0, Reservation_fails = 0
	L1D_cache_core[24]: Access = 0, Miss = 0, Miss_rate = -nan, Pending_hits = 0, Reservation_fails = 0
	L1D_cache_core[25]: Access = 0, Miss = 0, Miss_rate = -nan, Pending_hits = 0, Reservation_fails = 0
	L1D_cache_core[26]: Access = 0, Miss = 0, Miss_rate = -nan, Pending_hits = 0, Reservation_fails = 0
	L1D_cache_core[27]: Access = 0, Miss = 0, Miss_rate = -nan, Pending_hits = 0, Reservation_fails = 0
	L1D_total_cache_accesses = 0
	L1D_total_cache_misses = 0
	L1D_total_cache_pending_hits = 0
	L1D_total_cache_reservation_fails = 0
	L1D_cache_data_port_util = 0.000
	L1D_cache_fill_port_util = 0.000
L1C_cache:
	L1C_total_cache_accesses = 4096
	L1C_total_cache_misses = 1792
	L1C_total_cache_miss_rate = 0.4375
	L1C_total_cache_pending_hits = 0
	L1C_total_cache_reservation_fails = 5054
L1T_cache:
	L1T_total_cache_accesses = 0
	L1T_total_cache_misses = 0
	L1T_total_cache_pending_hits = 0
	L1T_total_cache_reservation_fails = 0

Total_core_cache_stats:
	Total_core_cache_stats_breakdown[GLOBAL_ACC_R][HIT] = 0
	Total_core_cache_stats_breakdown[GLOBAL_ACC_R][HIT_RESERVED] = 0
	Total_core_cache_stats_breakdown[GLOBAL_ACC_R][MISS] = 0
	Total_core_cache_stats_breakdown[GLOBAL_ACC_R][RESERVATION_FAIL] = 0
	Total_core_cache_stats_breakdown[LOCAL_ACC_R][HIT] = 0
	Total_core_cache_stats_breakdown[LOCAL_ACC_R][HIT_RESERVED] = 0
	Total_core_cache_stats_breakdown[LOCAL_ACC_R][MISS] = 0
	Total_core_cache_stats_breakdown[LOCAL_ACC_R][RESERVATION_FAIL] = 0
	Total_core_cache_stats_breakdown[CONST_ACC_R][HIT] = 2304
	Total_core_cache_stats_breakdown[CONST_ACC_R][HIT_RESERVED] = 0
	Total_core_cache_stats_breakdown[CONST_ACC_R][MISS] = 1792
	Total_core_cache_stats_breakdown[CONST_ACC_R][RESERVATION_FAIL] = 5054
	Total_core_cache_stats_breakdown[TEXTURE_ACC_R][HIT] = 0
	Total_core_cache_stats_breakdown[TEXTURE_ACC_R][HIT_RESERVED] = 0
	Total_core_cache_stats_breakdown[TEXTURE_ACC_R][MISS] = 0
	Total_core_cache_stats_breakdown[TEXTURE_ACC_R][RESERVATION_FAIL] = 0
	Total_core_cache_stats_breakdown[GLOBAL_ACC_W][HIT] = 0
	Total_core_cache_stats_breakdown[GLOBAL_ACC_W][HIT_RESERVED] = 0
	Total_core_cache_stats_breakdown[GLOBAL_ACC_W][MISS] = 0
	Total_core_cache_stats_breakdown[GLOBAL_ACC_W][RESERVATION_FAIL] = 0
	Total_core_cache_stats_breakdown[LOCAL_ACC_W][HIT] = 0
	Total_core_cache_stats_breakdown[LOCAL_ACC_W][HIT_RESERVED] = 0
	Total_core_cache_stats_breakdown[LOCAL_ACC_W][MISS] = 0
	Total_core_cache_stats_breakdown[LOCAL_ACC_W][RESERVATION_FAIL] = 0
	Total_core_cache_stats_breakdown[L1_WRBK_ACC][HIT] = 0
	Total_core_cache_stats_breakdown[L1_WRBK_ACC][HIT_RESERVED] = 0
	Total_core_cache_stats_breakdown[L1_WRBK_ACC][MISS] = 0
	Total_core_cache_stats_breakdown[L1_WRBK_ACC][RESERVATION_FAIL] = 0
	Total_core_cache_stats_breakdown[L2_WRBK_ACC][HIT] = 0
	Total_core_cache_stats_breakdown[L2_WRBK_ACC][HIT_RESERVED] = 0
	Total_core_cache_stats_breakdown[L2_WRBK_ACC][MISS] = 0
	Total_core_cache_stats_breakdown[L2_WRBK_ACC][RESERVATION_FAIL] = 0
	Total_core_cache_stats_breakdown[INST_ACC_R][HIT] = 48376
	Total_core_cache_stats_breakdown[INST_ACC_R][HIT_RESERVED] = 0
	Total_core_cache_stats_breakdown[INST_ACC_R][MISS] = 2600
	Total_core_cache_stats_breakdown[INST_ACC_R][RESERVATION_FAIL] = 6851
	Total_core_cache_stats_breakdown[L1_WR_ALLOC_R][HIT] = 0
	Total_core_cache_stats_breakdown[L1_WR_ALLOC_R][HIT_RESERVED] = 0
	Total_core_cache_stats_breakdown[L1_WR_ALLOC_R][MISS] = 0
	Total_core_cache_stats_breakdown[L1_WR_ALLOC_R][RESERVATION_FAIL] = 0
	Total_core_cache_stats_breakdown[L2_WR_ALLOC_R][HIT] = 0
	Total_core_cache_stats_breakdown[L2_WR_ALLOC_R][HIT_RESERVED] = 0
	Total_core_cache_stats_breakdown[L2_WR_ALLOC_R][MISS] = 0
	Total_core_cache_stats_breakdown[L2_WR_ALLOC_R][RESERVATION_FAIL] = 0
	Total_core_cache_stats_breakdown[CONST_ACC_R][TOTAL_ACCESS] = 4096
	Total_core_cache_stats_breakdown[INST_ACC_R][TOTAL_ACCESS] = 50976
Shader 0 warp_id issue ditsribution:
warp_id:
0, 1, 2, 3, 4, 5, 6, 7, 8, 9, 10, 11, 12, 13, 14, 15, 16, 17, 18, 19, 20, 21, 22, 23, 24, 25, 26, 27, 28, 29, 30, 31, 32, 33, 34, 35, 36, 37, 38, 39, 40, 41, 42, 43, 44, 45, 46, 47, 48, 49, 50, 51, 52, 53, 54, 55, 56, 57, 58, 59, 60, 61, 62, 63, 
distro:
112, 112, 112, 112, 112, 112, 112, 80, 56, 56, 56, 56, 56, 56, 56, 56, 56, 56, 56, 56, 56, 56, 56, 56, 56, 56, 56, 56, 56, 56, 56, 56, 56, 56, 56, 56, 56, 56, 56, 56, 56, 56, 56, 56, 56, 56, 56, 56, 56, 56, 56, 56, 56, 56, 56, 56, 56, 56, 56, 56, 56, 56, 56, 56, 
gpgpu_n_tot_thrd_icount = 3195904
gpgpu_n_tot_w_icount = 99872
gpgpu_n_stall_shd_mem = 51657
gpgpu_n_mem_read_local = 0
gpgpu_n_mem_write_local = 0
gpgpu_n_mem_read_global = 28956
gpgpu_n_mem_write_global = 2032
gpgpu_n_mem_texture = 0
gpgpu_n_mem_const = 28
gpgpu_n_load_insn  = 580644
gpgpu_n_store_insn = 64516
gpgpu_n_shmem_insn = 0
gpgpu_n_tex_insn = 0
gpgpu_n_const_mem_insn = 0
gpgpu_n_param_mem_insn = 131072
gpgpu_n_shmem_bkconflict = 0
gpgpu_n_cache_bkconflict = 0
gpgpu_n_intrawarp_mshr_merge = 0
gpgpu_n_cmem_portconflict = 5054
gpgpu_stall_shd_mem[c_mem][bk_conf] = 5054
gpgpu_stall_shd_mem[c_mem][mshr_rc] = 0
gpgpu_stall_shd_mem[c_mem][icnt_rc] = 0
gpgpu_stall_shd_mem[c_mem][data_port_stall] = 0
gpgpu_stall_shd_mem[t_mem][mshr_rc] = 0
gpgpu_stall_shd_mem[t_mem][icnt_rc] = 0
gpgpu_stall_shd_mem[t_mem][data_port_stall] = 0
gpgpu_stall_shd_mem[s_mem][bk_conf] = 0
gpgpu_stall_shd_mem[gl_mem][bk_conf] = 0
gpgpu_stall_shd_mem[gl_mem][coal_stall] = 26422
gpgpu_stall_shd_mem[gl_mem][data_port_stall] = 0
gpgpu_stall_shd_mem[g_mem_ld][mshr_rc] = 0
gpgpu_stall_shd_mem[g_mem_ld][icnt_rc] = 20181
gpgpu_stall_shd_mem[g_mem_ld][wb_icnt_rc] = 0
gpgpu_stall_shd_mem[g_mem_ld][wb_rsrv_fail] = 0
gpgpu_stall_shd_mem[g_mem_st][mshr_rc] = 0
gpgpu_stall_shd_mem[g_mem_st][icnt_rc] = 0
gpgpu_stall_shd_mem[g_mem_st][wb_icnt_rc] = 0
gpgpu_stall_shd_mem[g_mem_st][wb_rsrv_fail] = 0
gpgpu_stall_shd_mem[l_mem_ld][mshr_rc] = 0
gpgpu_stall_shd_mem[l_mem_ld][icnt_rc] = 0
gpgpu_stall_shd_mem[l_mem_ld][wb_icnt_rc] = 0
gpgpu_stall_shd_mem[l_mem_ld][wb_rsrv_fail] = 0
gpgpu_stall_shd_mem[l_mem_st][mshr_rc] = 0
gpgpu_stall_shd_mem[l_mem_st][icnt_rc] = 0
gpgpu_stall_shd_mem[l_mem_ld][wb_icnt_rc] = 0
gpgpu_stall_shd_mem[l_mem_ld][wb_rsrv_fail] = 0
gpu_reg_bank_conflict_stalls = 0
Warp Occupancy Distribution:
Stall:7027	W0_Idle:2456089	W0_Scoreboard:2595794	W1:0	W2:0	W3:0	W4:0	W5:0	W6:0	W7:0	W8:0	W9:0	W10:0	W11:0	W12:0	W13:0	W14:0	W15:0	W16:0	W17:0	W18:0	W19:0	W20:0	W21:0	W22:0	W23:0	W24:0	W25:0	W26:0	W27:0	W28:0	W29:0	W30:0	W31:15240	W32:84632
traffic_breakdown_coretomem[CONST_ACC_R] = 224 {8:28,}
traffic_breakdown_coretomem[GLOBAL_ACC_R] = 231648 {8:28956,}
traffic_breakdown_coretomem[GLOBAL_ACC_W] = 276352 {136:2032,}
traffic_breakdown_coretomem[INST_ACC_R] = 896 {8:112,}
traffic_breakdown_memtocore[CONST_ACC_R] = 2016 {72:28,}
traffic_breakdown_memtocore[GLOBAL_ACC_R] = 2913888 {40:10668,136:18288,}
traffic_breakdown_memtocore[GLOBAL_ACC_W] = 16256 {8:2032,}
traffic_breakdown_memtocore[INST_ACC_R] = 15232 {136:112,}
maxmrqlatency = 704 
maxdqlatency = 0 
maxmflatency = 49960 
averagemflatency = 6825 
max_icnt2mem_latency = 49419 
max_icnt2sh_latency = 314282 
mrq_lat_table:581 	61 	103 	209 	311 	562 	952 	1422 	1354 	562 	0 	0 	0 	0 	0 	0 	0 	0 	0 	0 	0 	0 	0 	0 	0 	0 	0 	0 	0 	0 	0 	0 	
dq_lat_table:0 	0 	0 	0 	0 	0 	0 	0 	0 	0 	0 	0 	0 	0 	0 	0 	0 	0 	0 	0 	0 	0 	0 	0 	0 	0 	0 	0 	0 	0 	0 	0 	
mf_lat_table:0 	0 	0 	0 	0 	0 	0 	9732 	13524 	642 	25 	152 	396 	1288 	1380 	3877 	0 	0 	0 	0 	0 	0 	0 	0 	0 	0 	0 	0 	0 	0 	0 	0 	
icnt2mem_lat_table:0 	0 	7449 	388 	916 	2262 	5137 	6448 	1382 	37 	49 	119 	396 	1288 	1380 	3877 	0 	0 	0 	0 	0 	0 	0 	0 	
icnt2sh_lat_table:0 	0 	15421 	12811 	752 	0 	0 	0 	0 	0 	0 	0 	0 	0 	0 	0 	0 	0 	2032 	0 	0 	0 	0 	0 	
mf_lat_pw_table:0 	0 	0 	0 	0 	0 	0 	15 	14 	0 	3 	3 	2 	3 	4 	17 	0 	0 	0 	0 	0 	0 	0 	0 	0 	0 	0 	0 	0 	0 	0 	0 	
maximum concurrent accesses to same row:
dram[0]:        30        30        32        32        32        32        32        32        32        32        32        32        32        32        32        32 
dram[1]:        30        30        32        32        32        32        32        32        32        32        32        32        32        32        32        32 
dram[2]:        30        30        32        32        32        32        32        32        32        32        32        32        32        32        32        32 
dram[3]:        30        30        32        32        32        32        32        32        32        32        32        32        32        32        32        32 
maximum service time to same row:
dram[0]:     26684     23282     35383     35382     35425     35427     35467     35469     38464     38521     45791     45789     47006     47054     67642     67642 
dram[1]:     21691     23287     35382     35385     35427     35429     35450     35455     38603     38529     45789     45789     47060     47061     67642     67642 
dram[2]:     27250     27299     35390     35389     35497     35497     35513     35514     38638     38637     45789     45789     47062     47070     67827     67828 
dram[3]:     27307     27219     35389     35390     35487     35488     35500     35501     38563     38612     45789     45790     47052     47056     67827     67828 
average row accesses per activate:
dram[0]: 19.200001 19.000000 32.000000 32.000000 32.000000 32.000000 32.000000 32.000000 32.000000 32.000000 32.000000 32.000000 24.000000 24.000000 31.333334 31.333334 
dram[1]: 19.000000 19.000000 32.000000 32.000000 32.000000 32.000000 32.000000 32.000000 32.000000 32.000000 32.000000 32.000000 24.000000 24.000000 31.333334 31.333334 
dram[2]: 31.333334 31.333334 32.000000 32.000000 32.000000 32.000000 32.000000 32.000000 32.000000 32.000000 32.000000 32.000000 24.000000 24.000000 31.333334 31.333334 
dram[3]: 31.333334 31.333334 32.000000 32.000000 32.000000 32.000000 32.000000 32.000000 32.000000 32.000000 32.000000 32.000000 24.000000 24.000000 31.333334 31.333334 
average row locality = 6117/208 = 29.408653
number of total memory accesses made:
dram[0]:         0         0         0         0         0         0         0         0         0         0         0         0         0         0         0         0 
dram[1]:         0         0         0         0         0         0         0         0         0         0         0         0         0         0         0         0 
dram[2]:         0         0         0         0         0         0         0         0         0         0         0         0         0         0         0         0 
dram[3]:         0         0         0         0         0         0         0         0         0         0         0         0         0         0         0         0 
total accesses: 0
min_bank_accesses = 0!
min_chip_accesses = 0!
number of total read accesses:
dram[0]:        65        64        64        64        64        64        64        64        64        64        64        64        64        64        63        63 
dram[1]:        64        64        64        64        64        64        64        64        64        64        64        64        64        64        63        63 
dram[2]:        63        63        64        64        64        64        64        64        64        64        64        64        64        64        63        63 
dram[3]:        63        63        64        64        64        64        64        64        64        64        64        64        64        64        63        63 
total reads: 4085
bank skew: 65/63 = 1.03
chip skew: 1023/1020 = 1.00
number of total write accesses:
dram[0]:        31        31        32        32        32        32        32        32        32        32        32        32        32        32        31        31 
dram[1]:        31        31        32        32        32        32        32        32        32        32        32        32        32        32        31        31 
dram[2]:        31        31        32        32        32        32        32        32        32        32        32        32        32        32        31        31 
dram[3]:        31        31        32        32        32        32        32        32        32        32        32        32        32        32        31        31 
total reads: 2032
bank skew: 32/31 = 1.03
chip skew: 508/508 = 1.00
average mf latency per bank:
dram[0]:      33928     34486     38346     38811     38233     38707     38386     38799     45260     45537     47229     47591     19593     20100     20048     20554
dram[1]:      34435     34509     38717     38816     38569     38703     38675     38820     45487     45558     47505     47630     20021     20059     20446     20552
dram[2]:      34790     34837     38706     38832     38632     38726     38715     38797     45513     45537     47530     47604     20025     20045     20510     20538
dram[3]:      34819     28027     38694     30456     38661     30511     38741     30531     45531     35222     47535     36455     20049     15719     20524     16059
maximum mf latency per bank:
dram[0]:      49048     48999     41279     41098     41481     41032     41383     41006     49960     49934     44710     44744     41077     40805     41108     40938
dram[1]:      49009     49021     41188     41231     41124     41022     41092     41008     49858     49827     44697     44753     41009     40811     41129     40949
dram[2]:      48917     48866     41112     40949     41190     41138     41171     41141     49798     49850     44697     44753     41001     41072     40956     40928
dram[3]:      48908     48867     41131     41303     41217     41634     41225     41412     49800     49800     44686     44732     41057     41242     41095     41262
Memory Partition 0: 
Cache L2_bank_000:
MSHR contents

Cache L2_bank_001:
MSHR contents

In Dram Latency Queue (total = 0): 
DRAM[0]: 16 bks, busW=4 BL=8 CL=12, tRRD=2 tCCD=6, tRCD=12 tRAS=28 tRP=12 tRC=40
n_cmd=171076 n_nop=164832 n_act=68 n_pre=52 n_req=1531 n_rd=4092 n_write=2032 bw_util=0.07159
n_activity=15199 dram_eff=0.8058
bk0: 260a 167281i bk1: 256a 167077i bk2: 256a 166530i bk3: 256a 166220i bk4: 256a 165967i bk5: 256a 165708i bk6: 256a 166025i bk7: 256a 165808i bk8: 256a 167370i bk9: 256a 167251i bk10: 256a 166916i bk11: 256a 166638i bk12: 256a 167282i bk13: 256a 167026i bk14: 252a 167242i bk15: 252a 167062i 
dram_util_bins: 0 0 0 0 0 0 0 0 0 0
dram_eff_bins: 0 0 0 0 0 0 0 0 0 0
mrqq: max=64 avg=3.23671
Memory Partition 1: 
Cache L2_bank_002:
MSHR contents
MSHR: tag=0xc007f900, atomic=0 1 entries : 0x7f9badc5f610 :  mf: uid= 99997, sid27:w06, part=1, addr=0xc007f900, load , size=128, unknown  status = IN_PARTITION_DRAM (314282), 
MSHR: tag=0xc0079d00, atomic=0 1 entries : 0x7f9bac01de10 :  mf: uid= 99996, sid03:w07, part=1, addr=0xc0079d00, load , size=128, unknown  status = IN_PARTITION_DRAM (314282), 

Cache L2_bank_003:
MSHR contents
MSHR: tag=0xc007f980, atomic=0 1 entries : 0x7f9bc0a21d40 :  mf: uid= 99995, sid00:w06, part=1, addr=0xc007f980, load , size=128, unknown  status = IN_PARTITION_DRAM (314282), 

In Dram Latency Queue (total = 0): 
DRAM[1]: 16 bks, busW=4 BL=8 CL=12, tRRD=2 tCCD=6, tRCD=12 tRAS=28 tRP=12 tRC=40
n_cmd=171076 n_nop=164844 n_act=69 n_pre=53 n_req=1530 n_rd=4078 n_write=2032 bw_util=0.07143
n_activity=14957 dram_eff=0.817
bk0: 256a 167272i bk1: 256a 167055i bk2: 256a 166506i bk3: 256a 166220i bk4: 256a 165962i bk5: 256a 165712i bk6: 256a 165924i bk7: 256a 165733i bk8: 256a 167389i bk9: 256a 167287i bk10: 256a 166912i bk11: 256a 166636i bk12: 254a 167030i bk13: 256a 166902i bk14: 248a 166967i bk15: 248a 166729i 
dram_util_bins: 0 0 0 0 0 0 0 0 0 0
dram_eff_bins: 0 0 0 0 0 0 0 0 0 0
mrqq: max=64 avg=3.33803
Memory Partition 2: 
Cache L2_bank_004:
MSHR contents

Cache L2_bank_005:
MSHR contents

In Dram Latency Queue (total = 0): 
DRAM[2]: 16 bks, busW=4 BL=8 CL=12, tRRD=2 tCCD=6, tRCD=12 tRAS=28 tRP=12 tRC=40
n_cmd=171076 n_nop=164848 n_act=66 n_pre=50 n_req=1528 n_rd=4080 n_write=2032 bw_util=0.07145
n_activity=15141 dram_eff=0.8073
bk0: 252a 167863i bk1: 252a 167609i bk2: 256a 167057i bk3: 256a 166751i bk4: 256a 166681i bk5: 256a 166420i bk6: 256a 166573i bk7: 256a 166373i bk8: 256a 167658i bk9: 256a 167489i bk10: 256a 167154i bk11: 256a 166902i bk12: 256a 167633i bk13: 256a 167356i bk14: 252a 167397i bk15: 252a 167206i 
dram_util_bins: 0 0 0 0 0 0 0 0 0 0
dram_eff_bins: 0 0 0 0 0 0 0 0 0 0
mrqq: max=64 avg=3.29935
Memory Partition 3: 
Cache L2_bank_006:
MSHR contents

Cache L2_bank_007:
MSHR contents

In Dram Latency Queue (total = 0): 
DRAM[3]: 16 bks, busW=4 BL=8 CL=12, tRRD=2 tCCD=6, tRCD=12 tRAS=28 tRP=12 tRC=40
n_cmd=171076 n_nop=164848 n_act=66 n_pre=50 n_req=1528 n_rd=4080 n_write=2032 bw_util=0.07145
n_activity=15294 dram_eff=0.7993
bk0: 252a 167863i bk1: 252a 167613i bk2: 256a 167037i bk3: 256a 166722i bk4: 256a 166638i bk5: 256a 166403i bk6: 256a 166548i bk7: 256a 166343i bk8: 256a 167667i bk9: 256a 167551i bk10: 256a 167158i bk11: 256a 166897i bk12: 256a 167815i bk13: 256a 167652i bk14: 252a 167710i bk15: 252a 167509i 
dram_util_bins: 0 0 0 0 0 0 0 0 0 0
dram_eff_bins: 0 0 0 0 0 0 0 0 0 0
mrqq: max=64 avg=3.2625

========= L2 cache stats =========
L2_cache_bank[0]: Access = 3358, Miss = 512, Miss_rate = 0.152, Pending_hits = 590, Reservation_fails = 0
L2_cache_bank[1]: Access = 4092, Miss = 511, Miss_rate = 0.125, Pending_hits = 552, Reservation_fails = 2
L2_cache_bank[2]: Access = 4092, Miss = 511, Miss_rate = 0.125, Pending_hits = 543, Reservation_fails = 0
L2_cache_bank[3]: Access = 4092, Miss = 511, Miss_rate = 0.125, Pending_hits = 539, Reservation_fails = 6
L2_cache_bank[4]: Access = 4064, Miss = 510, Miss_rate = 0.125, Pending_hits = 525, Reservation_fails = 2
L2_cache_bank[5]: Access = 4064, Miss = 510, Miss_rate = 0.125, Pending_hits = 533, Reservation_fails = 2
L2_cache_bank[6]: Access = 4064, Miss = 510, Miss_rate = 0.125, Pending_hits = 526, Reservation_fails = 3
L2_cache_bank[7]: Access = 3302, Miss = 510, Miss_rate = 0.154, Pending_hits = 265, Reservation_fails = 1
L2_total_cache_accesses = 31128
L2_total_cache_misses = 4085
L2_total_cache_miss_rate = 0.1312
L2_total_cache_pending_hits = 4073
L2_total_cache_reservation_fails = 16
L2_total_cache_breakdown:
	L2_cache_stats_breakdown[GLOBAL_ACC_R][HIT] = 22925
	L2_cache_stats_breakdown[GLOBAL_ACC_R][HIT_RESERVED] = 3983
	L2_cache_stats_breakdown[GLOBAL_ACC_R][MISS] = 2048
	L2_cache_stats_breakdown[GLOBAL_ACC_R][RESERVATION_FAIL] = 0
	L2_cache_stats_breakdown[LOCAL_ACC_R][HIT] = 0
	L2_cache_stats_breakdown[LOCAL_ACC_R][HIT_RESERVED] = 0
	L2_cache_stats_breakdown[LOCAL_ACC_R][MISS] = 0
	L2_cache_stats_breakdown[LOCAL_ACC_R][RESERVATION_FAIL] = 0
	L2_cache_stats_breakdown[CONST_ACC_R][HIT] = 0
	L2_cache_stats_breakdown[CONST_ACC_R][HIT_RESERVED] = 27
	L2_cache_stats_breakdown[CONST_ACC_R][MISS] = 1
	L2_cache_stats_breakdown[CONST_ACC_R][RESERVATION_FAIL] = 0
	L2_cache_stats_breakdown[TEXTURE_ACC_R][HIT] = 0
	L2_cache_stats_breakdown[TEXTURE_ACC_R][HIT_RESERVED] = 0
	L2_cache_stats_breakdown[TEXTURE_ACC_R][MISS] = 0
	L2_cache_stats_breakdown[TEXTURE_ACC_R][RESERVATION_FAIL] = 0
	L2_cache_stats_breakdown[GLOBAL_ACC_W][HIT] = 0
	L2_cache_stats_breakdown[GLOBAL_ACC_W][HIT_RESERVED] = 0
	L2_cache_stats_breakdown[GLOBAL_ACC_W][MISS] = 2032
	L2_cache_stats_breakdown[GLOBAL_ACC_W][RESERVATION_FAIL] = 16
	L2_cache_stats_breakdown[LOCAL_ACC_W][HIT] = 0
	L2_cache_stats_breakdown[LOCAL_ACC_W][HIT_RESERVED] = 0
	L2_cache_stats_breakdown[LOCAL_ACC_W][MISS] = 0
	L2_cache_stats_breakdown[LOCAL_ACC_W][RESERVATION_FAIL] = 0
	L2_cache_stats_breakdown[L1_WRBK_ACC][HIT] = 0
	L2_cache_stats_breakdown[L1_WRBK_ACC][HIT_RESERVED] = 0
	L2_cache_stats_breakdown[L1_WRBK_ACC][MISS] = 0
	L2_cache_stats_breakdown[L1_WRBK_ACC][RESERVATION_FAIL] = 0
	L2_cache_stats_breakdown[L2_WRBK_ACC][HIT] = 0
	L2_cache_stats_breakdown[L2_WRBK_ACC][HIT_RESERVED] = 0
	L2_cache_stats_breakdown[L2_WRBK_ACC][MISS] = 0
	L2_cache_stats_breakdown[L2_WRBK_ACC][RESERVATION_FAIL] = 0
	L2_cache_stats_breakdown[INST_ACC_R][HIT] = 45
	L2_cache_stats_breakdown[INST_ACC_R][HIT_RESERVED] = 63
	L2_cache_stats_breakdown[INST_ACC_R][MISS] = 4
	L2_cache_stats_breakdown[INST_ACC_R][RESERVATION_FAIL] = 0
	L2_cache_stats_breakdown[L1_WR_ALLOC_R][HIT] = 0
	L2_cache_stats_breakdown[L1_WR_ALLOC_R][HIT_RESERVED] = 0
	L2_cache_stats_breakdown[L1_WR_ALLOC_R][MISS] = 0
	L2_cache_stats_breakdown[L1_WR_ALLOC_R][RESERVATION_FAIL] = 0
	L2_cache_stats_breakdown[L2_WR_ALLOC_R][HIT] = 0
	L2_cache_stats_breakdown[L2_WR_ALLOC_R][HIT_RESERVED] = 0
	L2_cache_stats_breakdown[L2_WR_ALLOC_R][MISS] = 0
	L2_cache_stats_breakdown[L2_WR_ALLOC_R][RESERVATION_FAIL] = 0
	L2_cache_stats_breakdown[GLOBAL_ACC_R][TOTAL_ACCESS] = 28956
	L2_cache_stats_breakdown[CONST_ACC_R][TOTAL_ACCESS] = 28
	L2_cache_stats_breakdown[GLOBAL_ACC_W][TOTAL_ACCESS] = 2032
	L2_cache_stats_breakdown[INST_ACC_R][TOTAL_ACCESS] = 112
L2_cache_data_port_util = 0.089
L2_cache_fill_port_util = 0.022

icnt_total_pkts_mem_to_simt=115452
icnt_total_pkts_simt_to_mem=39256
LD_mem_lat_dist  0 0 0 0 0 0 0 0 0 0 0 0 0 0 0 0 0 0 0 0 0 0 0 0 0 0 0
ST_mem_lat_dist  0 0 0 0 0 0 0 0 0 0 0 0 0 0 0 0 0 0 0 0 0 0 0 0 0 0 0
----------------------------Interconnect-DETAILS--------------------------------
Class 0:
Packet latency average = 63.4333
	minimum = 6
	maximum = 1056
Network latency average = 46.9616
	minimum = 6
	maximum = 846
Slowest packet = 27c7
Flit latency average = 24.7243
	minimum = 6
	maximum = 846
Slowest flit = e479
Fragmentation average = 0.00751735
	minimum = 0
	maximum = 160
Injected packet rate average = 0.00675722
	minimum = 0 (at node 24)
	maximum = 0.0222071 (at node 1d)
Accepted packet rate average = 0.00675722
	minimum = 0 (at node 24)
	maximum = 0.0222071 (at node 1d)
Injected flit rate average = 0.0167919
	minimum = 0 (at node 24)
	maximum = 0.0807098 (at node 1d)
Accepted flit rate average= 0.0167919
	minimum = 0 (at node 24)
	maximum = 0.0277209 (at node 1d)
Injected packet length average = 2.48503
Accepted packet length average = 2.48503
Total in-flight flits = 0 (0 measured)
====== Overall Traffic Statistics ======
====== Traffic class 0 ======
Packet latency average = 63.4333 (1 samples)
	minimum = 6 (1 samples)
	maximum = 1056 (1 samples)
Network latency average = 46.9616 (1 samples)
	minimum = 6 (1 samples)
	maximum = 846 (1 samples)
Flit latency average = 24.7243 (1 samples)
	minimum = 6 (1 samples)
	maximum = 846 (1 samples)
Fragmentation average = 0.00751735 (1 samples)
	minimum = 0 (1 samples)
	maximum = 160 (1 samples)
Injected packet rate average = 0.00675722 (1 samples)
	minimum = 0 (1 samples)
	maximum = 0.0222071 (1 samples)
Accepted packet rate average = 0.00675722 (1 samples)
	minimum = 0 (1 samples)
	maximum = 0.0222071 (1 samples)
Injected flit rate average = 0.0167919 (1 samples)
	minimum = 0 (1 samples)
	maximum = 0.0807098 (1 samples)
Accepted flit rate average = 0.0167919 (1 samples)
	minimum = 0 (1 samples)
	maximum = 0.0277209 (1 samples)
Injected packet size average = 2.48503 (1 samples)
Accepted packet size average = 2.48503 (1 samples)
Hops average = 1 (1 samples)
----------------------------END-of-Interconnect-DETAILS-------------------------


gpgpu_simulation_time = 0 days, 0 hrs, 14 min, 48 sec (888 sec)
gpgpu_simulation_rate = 3509 (inst/sec)
gpgpu_simulation_rate = 398 (cycle/sec)

GPGPU-Sim PTX: cudaLaunch for 0x0x400f19 (mode=performance simulation) on stream 0
GPGPU-Sim PTX: pushing kernel '_Z20Convolution2D_kernelPfS_' to stream 0, gridDim= (8,32,1) blockDim = (32,8,1) 
GPGPU-Sim uArch: Shader 5 bind to kernel 2 '_Z20Convolution2D_kernelPfS_'
GPGPU-Sim uArch: Shader 6 bind to kernel 2 '_Z20Convolution2D_kernelPfS_'
GPGPU-Sim uArch: Shader 7 bind to kernel 2 '_Z20Convolution2D_kernelPfS_'
GPGPU-Sim uArch: Shader 8 bind to kernel 2 '_Z20Convolution2D_kernelPfS_'
GPGPU-Sim uArch: Shader 9 bind to kernel 2 '_Z20Convolution2D_kernelPfS_'
GPGPU-Sim uArch: Shader 10 bind to kernel 2 '_Z20Convolution2D_kernelPfS_'
GPGPU-Sim uArch: Shader 11 bind to kernel 2 '_Z20Convolution2D_kernelPfS_'
GPGPU-Sim uArch: Shader 12 bind to kernel 2 '_Z20Convolution2D_kernelPfS_'
GPGPU-Sim uArch: Shader 13 bind to kernel 2 '_Z20Convolution2D_kernelPfS_'
GPGPU-Sim uArch: Shader 14 bind to kernel 2 '_Z20Convolution2D_kernelPfS_'
GPGPU-Sim uArch: Shader 15 bind to kernel 2 '_Z20Convolution2D_kernelPfS_'
GPGPU-Sim uArch: Shader 16 bind to kernel 2 '_Z20Convolution2D_kernelPfS_'
GPGPU-Sim uArch: Shader 17 bind to kernel 2 '_Z20Convolution2D_kernelPfS_'
GPGPU-Sim uArch: Shader 18 bind to kernel 2 '_Z20Convolution2D_kernelPfS_'
GPGPU-Sim uArch: Shader 19 bind to kernel 2 '_Z20Convolution2D_kernelPfS_'
GPGPU-Sim uArch: Shader 20 bind to kernel 2 '_Z20Convolution2D_kernelPfS_'
GPGPU-Sim uArch: Shader 21 bind to kernel 2 '_Z20Convolution2D_kernelPfS_'
GPGPU-Sim uArch: Shader 22 bind to kernel 2 '_Z20Convolution2D_kernelPfS_'
GPGPU-Sim uArch: Shader 23 bind to kernel 2 '_Z20Convolution2D_kernelPfS_'
GPGPU-Sim uArch: Shader 24 bind to kernel 2 '_Z20Convolution2D_kernelPfS_'
GPGPU-Sim uArch: Shader 25 bind to kernel 2 '_Z20Convolution2D_kernelPfS_'
GPGPU-Sim uArch: Shader 26 bind to kernel 2 '_Z20Convolution2D_kernelPfS_'
GPGPU-Sim uArch: Shader 27 bind to kernel 2 '_Z20Convolution2D_kernelPfS_'
GPGPU-Sim uArch: Shader 0 bind to kernel 2 '_Z20Convolution2D_kernelPfS_'
GPGPU-Sim uArch: Shader 1 bind to kernel 2 '_Z20Convolution2D_kernelPfS_'
GPGPU-Sim uArch: Shader 2 bind to kernel 2 '_Z20Convolution2D_kernelPfS_'
GPGPU-Sim uArch: Shader 3 bind to kernel 2 '_Z20Convolution2D_kernelPfS_'
GPGPU-Sim uArch: Shader 4 bind to kernel 2 '_Z20Convolution2D_kernelPfS_'
Fault address : 0xc008b
GHB MISS, adding to GHB at position 9
Fault address : 0xc0091
GHB MISS, adding to GHB at position a
Fault address : 0xc00a0
GHB MISS, adding to GHB at position b
Fault address : 0xc00b5
GHB MISS, adding to GHB at position c
Fault address : 0xc00c6
GHB MISS, adding to GHB at position d
Fault address : 0xc00d0
GHB MISS, adding to GHB at position e
Fault address : 0xc00e0
GHB MISS, adding to GHB at position f
Fault address : 0xc00f0
GHB MISS, adding to GHB at position 10
Destroy streams for kernel 2: size 0
kernel_name = _Z20Convolution2D_kernelPfS_ 
kernel_launch_uid = 2 
gpu_sim_cycle = 88719
gpu_sim_insn = 3116148
gpu_ipc =      35.1238
gpu_tot_sim_cycle = 665142
gpu_tot_sim_insn = 6232296
gpu_tot_ipc =       9.3699
gpu_tot_issued_cta = 512
max_total_param_size = 0
gpu_stall_dramfull = 93450
gpu_stall_icnt2sh    = 73689
partiton_reqs_in_parallel = 663339
partiton_reqs_in_parallel_total    = 690027
partiton_level_parallism =       7.4769
partiton_level_parallism_total  =       2.0347
partiton_reqs_in_parallel_util = 663339
partiton_reqs_in_parallel_util_total    = 690027
gpu_sim_cycle_parition_util = 87584
gpu_tot_sim_cycle_parition_util    = 90841
partiton_level_parallism_util =       7.5737
partiton_level_parallism_util_total  =       7.5851
partiton_replys_in_parallel = 30988
partiton_replys_in_parallel_total    = 31128
L2_BW  =      33.1064 GB/Sec
L2_BW_total  =       8.8516 GB/Sec
gpu_total_sim_rate=3062

========= Core cache stats =========
L1I_cache:
	L1I_total_cache_accesses = 101952
	L1I_total_cache_misses = 2600
	L1I_total_cache_miss_rate = 0.0255
	L1I_total_cache_pending_hits = 0
	L1I_total_cache_reservation_fails = 6851
L1D_cache:
	L1D_cache_core[0]: Access = 0, Miss = 0, Miss_rate = -nan, Pending_hits = 0, Reservation_fails = 0
	L1D_cache_core[1]: Access = 0, Miss = 0, Miss_rate = -nan, Pending_hits = 0, Reservation_fails = 0
	L1D_cache_core[2]: Access = 0, Miss = 0, Miss_rate = -nan, Pending_hits = 0, Reservation_fails = 0
	L1D_cache_core[3]: Access = 0, Miss = 0, Miss_rate = -nan, Pending_hits = 0, Reservation_fails = 0
	L1D_cache_core[4]: Access = 0, Miss = 0, Miss_rate = -nan, Pending_hits = 0, Reservation_fails = 0
	L1D_cache_core[5]: Access = 0, Miss = 0, Miss_rate = -nan, Pending_hits = 0, Reservation_fails = 0
	L1D_cache_core[6]: Access = 0, Miss = 0, Miss_rate = -nan, Pending_hits = 0, Reservation_fails = 0
	L1D_cache_core[7]: Access = 0, Miss = 0, Miss_rate = -nan, Pending_hits = 0, Reservation_fails = 0
	L1D_cache_core[8]: Access = 0, Miss = 0, Miss_rate = -nan, Pending_hits = 0, Reservation_fails = 0
	L1D_cache_core[9]: Access = 0, Miss = 0, Miss_rate = -nan, Pending_hits = 0, Reservation_fails = 0
	L1D_cache_core[10]: Access = 0, Miss = 0, Miss_rate = -nan, Pending_hits = 0, Reservation_fails = 0
	L1D_cache_core[11]: Access = 0, Miss = 0, Miss_rate = -nan, Pending_hits = 0, Reservation_fails = 0
	L1D_cache_core[12]: Access = 0, Miss = 0, Miss_rate = -nan, Pending_hits = 0, Reservation_fails = 0
	L1D_cache_core[13]: Access = 0, Miss = 0, Miss_rate = -nan, Pending_hits = 0, Reservation_fails = 0
	L1D_cache_core[14]: Access = 0, Miss = 0, Miss_rate = -nan, Pending_hits = 0, Reservation_fails = 0
	L1D_cache_core[15]: Access = 0, Miss = 0, Miss_rate = -nan, Pending_hits = 0, Reservation_fails = 0
	L1D_cache_core[16]: Access = 0, Miss = 0, Miss_rate = -nan, Pending_hits = 0, Reservation_fails = 0
	L1D_cache_core[17]: Access = 0, Miss = 0, Miss_rate = -nan, Pending_hits = 0, Reservation_fails = 0
	L1D_cache_core[18]: Access = 0, Miss = 0, Miss_rate = -nan, Pending_hits = 0, Reservation_fails = 0
	L1D_cache_core[19]: Access = 0, Miss = 0, Miss_rate = -nan, Pending_hits = 0, Reservation_fails = 0
	L1D_cache_core[20]: Access = 0, Miss = 0, Miss_rate = -nan, Pending_hits = 0, Reservation_fails = 0
	L1D_cache_core[21]: Access = 0, Miss = 0, Miss_rate = -nan, Pending_hits = 0, Reservation_fails = 0
	L1D_cache_core[22]: Access = 0, Miss = 0, Miss_rate = -nan, Pending_hits = 0, Reservation_fails = 0
	L1D_cache_core[23]: Access = 0, Miss = 0, Miss_rate = -nan, Pending_hits = 0, Reservation_fails = 0
	L1D_cache_core[24]: Access = 0, Miss = 0, Miss_rate = -nan, Pending_hits = 0, Reservation_fails = 0
	L1D_cache_core[25]: Access = 0, Miss = 0, Miss_rate = -nan, Pending_hits = 0, Reservation_fails = 0
	L1D_cache_core[26]: Access = 0, Miss = 0, Miss_rate = -nan, Pending_hits = 0, Reservation_fails = 0
	L1D_cache_core[27]: Access = 0, Miss = 0, Miss_rate = -nan, Pending_hits = 0, Reservation_fails = 0
	L1D_total_cache_accesses = 0
	L1D_total_cache_misses = 0
	L1D_total_cache_pending_hits = 0
	L1D_total_cache_reservation_fails = 0
	L1D_cache_data_port_util = 0.000
	L1D_cache_fill_port_util = 0.000
L1C_cache:
	L1C_total_cache_accesses = 8192
	L1C_total_cache_misses = 1792
	L1C_total_cache_miss_rate = 0.2188
	L1C_total_cache_pending_hits = 0
	L1C_total_cache_reservation_fails = 5054
L1T_cache:
	L1T_total_cache_accesses = 0
	L1T_total_cache_misses = 0
	L1T_total_cache_pending_hits = 0
	L1T_total_cache_reservation_fails = 0

Total_core_cache_stats:
	Total_core_cache_stats_breakdown[GLOBAL_ACC_R][HIT] = 0
	Total_core_cache_stats_breakdown[GLOBAL_ACC_R][HIT_RESERVED] = 0
	Total_core_cache_stats_breakdown[GLOBAL_ACC_R][MISS] = 0
	Total_core_cache_stats_breakdown[GLOBAL_ACC_R][RESERVATION_FAIL] = 0
	Total_core_cache_stats_breakdown[LOCAL_ACC_R][HIT] = 0
	Total_core_cache_stats_breakdown[LOCAL_ACC_R][HIT_RESERVED] = 0
	Total_core_cache_stats_breakdown[LOCAL_ACC_R][MISS] = 0
	Total_core_cache_stats_breakdown[LOCAL_ACC_R][RESERVATION_FAIL] = 0
	Total_core_cache_stats_breakdown[CONST_ACC_R][HIT] = 6400
	Total_core_cache_stats_breakdown[CONST_ACC_R][HIT_RESERVED] = 0
	Total_core_cache_stats_breakdown[CONST_ACC_R][MISS] = 1792
	Total_core_cache_stats_breakdown[CONST_ACC_R][RESERVATION_FAIL] = 5054
	Total_core_cache_stats_breakdown[TEXTURE_ACC_R][HIT] = 0
	Total_core_cache_stats_breakdown[TEXTURE_ACC_R][HIT_RESERVED] = 0
	Total_core_cache_stats_breakdown[TEXTURE_ACC_R][MISS] = 0
	Total_core_cache_stats_breakdown[TEXTURE_ACC_R][RESERVATION_FAIL] = 0
	Total_core_cache_stats_breakdown[GLOBAL_ACC_W][HIT] = 0
	Total_core_cache_stats_breakdown[GLOBAL_ACC_W][HIT_RESERVED] = 0
	Total_core_cache_stats_breakdown[GLOBAL_ACC_W][MISS] = 0
	Total_core_cache_stats_breakdown[GLOBAL_ACC_W][RESERVATION_FAIL] = 0
	Total_core_cache_stats_breakdown[LOCAL_ACC_W][HIT] = 0
	Total_core_cache_stats_breakdown[LOCAL_ACC_W][HIT_RESERVED] = 0
	Total_core_cache_stats_breakdown[LOCAL_ACC_W][MISS] = 0
	Total_core_cache_stats_breakdown[LOCAL_ACC_W][RESERVATION_FAIL] = 0
	Total_core_cache_stats_breakdown[L1_WRBK_ACC][HIT] = 0
	Total_core_cache_stats_breakdown[L1_WRBK_ACC][HIT_RESERVED] = 0
	Total_core_cache_stats_breakdown[L1_WRBK_ACC][MISS] = 0
	Total_core_cache_stats_breakdown[L1_WRBK_ACC][RESERVATION_FAIL] = 0
	Total_core_cache_stats_breakdown[L2_WRBK_ACC][HIT] = 0
	Total_core_cache_stats_breakdown[L2_WRBK_ACC][HIT_RESERVED] = 0
	Total_core_cache_stats_breakdown[L2_WRBK_ACC][MISS] = 0
	Total_core_cache_stats_breakdown[L2_WRBK_ACC][RESERVATION_FAIL] = 0
	Total_core_cache_stats_breakdown[INST_ACC_R][HIT] = 99352
	Total_core_cache_stats_breakdown[INST_ACC_R][HIT_RESERVED] = 0
	Total_core_cache_stats_breakdown[INST_ACC_R][MISS] = 2600
	Total_core_cache_stats_breakdown[INST_ACC_R][RESERVATION_FAIL] = 6851
	Total_core_cache_stats_breakdown[L1_WR_ALLOC_R][HIT] = 0
	Total_core_cache_stats_breakdown[L1_WR_ALLOC_R][HIT_RESERVED] = 0
	Total_core_cache_stats_breakdown[L1_WR_ALLOC_R][MISS] = 0
	Total_core_cache_stats_breakdown[L1_WR_ALLOC_R][RESERVATION_FAIL] = 0
	Total_core_cache_stats_breakdown[L2_WR_ALLOC_R][HIT] = 0
	Total_core_cache_stats_breakdown[L2_WR_ALLOC_R][HIT_RESERVED] = 0
	Total_core_cache_stats_breakdown[L2_WR_ALLOC_R][MISS] = 0
	Total_core_cache_stats_breakdown[L2_WR_ALLOC_R][RESERVATION_FAIL] = 0
	Total_core_cache_stats_breakdown[CONST_ACC_R][TOTAL_ACCESS] = 8192
	Total_core_cache_stats_breakdown[INST_ACC_R][TOTAL_ACCESS] = 101952
Shader 0 warp_id issue ditsribution:
warp_id:
0, 1, 2, 3, 4, 5, 6, 7, 8, 9, 10, 11, 12, 13, 14, 15, 16, 17, 18, 19, 20, 21, 22, 23, 24, 25, 26, 27, 28, 29, 30, 31, 32, 33, 34, 35, 36, 37, 38, 39, 40, 41, 42, 43, 44, 45, 46, 47, 48, 49, 50, 51, 52, 53, 54, 55, 56, 57, 58, 59, 60, 61, 62, 63, 
distro:
224, 224, 224, 224, 224, 224, 224, 192, 112, 112, 112, 112, 112, 112, 112, 112, 112, 112, 112, 112, 112, 112, 112, 112, 112, 112, 112, 112, 112, 112, 112, 112, 112, 112, 112, 112, 112, 112, 112, 112, 112, 112, 112, 112, 112, 112, 112, 112, 112, 112, 112, 112, 112, 112, 112, 112, 112, 112, 112, 112, 112, 112, 112, 112, 
gpgpu_n_tot_thrd_icount = 6391808
gpgpu_n_tot_w_icount = 199744
gpgpu_n_stall_shd_mem = 95423
gpgpu_n_mem_read_local = 0
gpgpu_n_mem_write_local = 0
gpgpu_n_mem_read_global = 57912
gpgpu_n_mem_write_global = 4064
gpgpu_n_mem_texture = 0
gpgpu_n_mem_const = 28
gpgpu_n_load_insn  = 1161288
gpgpu_n_store_insn = 129032
gpgpu_n_shmem_insn = 0
gpgpu_n_tex_insn = 0
gpgpu_n_const_mem_insn = 0
gpgpu_n_param_mem_insn = 262144
gpgpu_n_shmem_bkconflict = 0
gpgpu_n_cache_bkconflict = 0
gpgpu_n_intrawarp_mshr_merge = 0
gpgpu_n_cmem_portconflict = 5054
gpgpu_stall_shd_mem[c_mem][bk_conf] = 5054
gpgpu_stall_shd_mem[c_mem][mshr_rc] = 0
gpgpu_stall_shd_mem[c_mem][icnt_rc] = 0
gpgpu_stall_shd_mem[c_mem][data_port_stall] = 0
gpgpu_stall_shd_mem[t_mem][mshr_rc] = 0
gpgpu_stall_shd_mem[t_mem][icnt_rc] = 0
gpgpu_stall_shd_mem[t_mem][data_port_stall] = 0
gpgpu_stall_shd_mem[s_mem][bk_conf] = 0
gpgpu_stall_shd_mem[gl_mem][bk_conf] = 0
gpgpu_stall_shd_mem[gl_mem][coal_stall] = 52016
gpgpu_stall_shd_mem[gl_mem][data_port_stall] = 0
gpgpu_stall_shd_mem[g_mem_ld][mshr_rc] = 0
gpgpu_stall_shd_mem[g_mem_ld][icnt_rc] = 38353
gpgpu_stall_shd_mem[g_mem_ld][wb_icnt_rc] = 0
gpgpu_stall_shd_mem[g_mem_ld][wb_rsrv_fail] = 0
gpgpu_stall_shd_mem[g_mem_st][mshr_rc] = 0
gpgpu_stall_shd_mem[g_mem_st][icnt_rc] = 0
gpgpu_stall_shd_mem[g_mem_st][wb_icnt_rc] = 0
gpgpu_stall_shd_mem[g_mem_st][wb_rsrv_fail] = 0
gpgpu_stall_shd_mem[l_mem_ld][mshr_rc] = 0
gpgpu_stall_shd_mem[l_mem_ld][icnt_rc] = 0
gpgpu_stall_shd_mem[l_mem_ld][wb_icnt_rc] = 0
gpgpu_stall_shd_mem[l_mem_ld][wb_rsrv_fail] = 0
gpgpu_stall_shd_mem[l_mem_st][mshr_rc] = 0
gpgpu_stall_shd_mem[l_mem_st][icnt_rc] = 0
gpgpu_stall_shd_mem[l_mem_ld][wb_icnt_rc] = 0
gpgpu_stall_shd_mem[l_mem_ld][wb_rsrv_fail] = 0
gpu_reg_bank_conflict_stalls = 0
Warp Occupancy Distribution:
Stall:10520	W0_Idle:4999960	W0_Scoreboard:4914902	W1:0	W2:0	W3:0	W4:0	W5:0	W6:0	W7:0	W8:0	W9:0	W10:0	W11:0	W12:0	W13:0	W14:0	W15:0	W16:0	W17:0	W18:0	W19:0	W20:0	W21:0	W22:0	W23:0	W24:0	W25:0	W26:0	W27:0	W28:0	W29:0	W30:0	W31:30480	W32:169264
traffic_breakdown_coretomem[CONST_ACC_R] = 224 {8:28,}
traffic_breakdown_coretomem[GLOBAL_ACC_R] = 463296 {8:57912,}
traffic_breakdown_coretomem[GLOBAL_ACC_W] = 552704 {136:4064,}
traffic_breakdown_coretomem[INST_ACC_R] = 896 {8:112,}
traffic_breakdown_memtocore[CONST_ACC_R] = 2016 {72:28,}
traffic_breakdown_memtocore[GLOBAL_ACC_R] = 5827776 {40:21336,136:36576,}
traffic_breakdown_memtocore[GLOBAL_ACC_W] = 32512 {8:4064,}
traffic_breakdown_memtocore[INST_ACC_R] = 15232 {136:112,}
maxmrqlatency = 704 
maxdqlatency = 0 
maxmflatency = 49960 
averagemflatency = 6574 
max_icnt2mem_latency = 49419 
max_icnt2sh_latency = 665141 
mrq_lat_table:1103 	103 	194 	344 	723 	1064 	1969 	2900 	2793 	1036 	0 	0 	0 	0 	0 	0 	0 	0 	0 	0 	0 	0 	0 	0 	0 	0 	0 	0 	0 	0 	0 	0 	
dq_lat_table:0 	0 	0 	0 	0 	0 	0 	0 	0 	0 	0 	0 	0 	0 	0 	0 	0 	0 	0 	0 	0 	0 	0 	0 	0 	0 	0 	0 	0 	0 	0 	0 	
mf_lat_table:0 	0 	0 	0 	0 	0 	0 	19453 	27048 	1277 	75 	207 	1590 	1840 	4140 	6374 	0 	0 	0 	0 	0 	0 	0 	0 	0 	0 	0 	0 	0 	0 	0 	0 	
icnt2mem_lat_table:0 	0 	14973 	705 	1749 	4417 	10445 	12798 	2765 	47 	108 	165 	1590 	1840 	4144 	6370 	0 	0 	0 	0 	0 	0 	0 	0 	
icnt2sh_lat_table:0 	0 	31107 	25366 	1459 	8 	0 	0 	0 	0 	0 	0 	0 	0 	0 	0 	0 	0 	2032 	2032 	0 	0 	0 	0 	
mf_lat_pw_table:0 	0 	0 	0 	0 	0 	0 	28 	28 	2 	3 	8 	4 	5 	8 	32 	0 	0 	0 	0 	0 	0 	0 	0 	0 	0 	0 	0 	0 	0 	0 	0 	
maximum concurrent accesses to same row:
dram[0]:        32        32        32        32        32        32        32        32        32        32        32        32        32        32        32        32 
dram[1]:        32        32        32        32        32        32        32        32        32        32        32        32        32        32        32        32 
dram[2]:        32        32        32        32        32        32        32        32        32        32        32        32        32        32        32        32 
dram[3]:        32        32        32        32        32        32        32        32        32        32        32        32        32        32        32        32 
maximum service time to same row:
dram[0]:     26684     23282     35383     35382     35425     35427     35467     35469     38464     38521     45791     45789     47006     47054     67642     67642 
dram[1]:     22927     23287     35382     35385     35427     35429     35450     35455     38603     38529     45789     45789     47060     47061     67642     67642 
dram[2]:     27250     27299     35390     35389     35497     35497     35513     35514     38638     38637     45789     45789     47062     47070     67827     67828 
dram[3]:     27307     27219     35389     35390     35487     35488     35500     35501     38563     38612     45789     45790     47052     47056     67827     67828 
average row accesses per activate:
dram[0]: 21.111111 21.000000 27.428572 27.428572 27.428572 27.428572 27.428572 27.428572 27.428572 27.428572 27.428572 27.428572 21.333334 21.333334 26.857143 26.857143 
dram[1]: 21.000000 21.000000 27.428572 27.428572 27.428572 27.428572 27.428572 27.428572 27.428572 27.428572 27.428572 27.428572 21.333334 21.333334 26.857143 26.857143 
dram[2]: 26.857143 26.857143 27.428572 27.428572 27.428572 27.428572 27.428572 27.428572 27.428572 27.428572 27.428572 27.428572 21.333334 21.333334 26.857143 26.857143 
dram[3]: 26.857143 26.857143 27.428572 27.428572 27.428572 27.428572 27.428572 27.428572 27.428572 27.428572 27.428572 27.428572 21.333334 21.333334 26.857143 26.857143 
average row locality = 12229/472 = 25.908897
number of total memory accesses made:
dram[0]:         0         0         0         0         0         0         0         0         0         0         0         0         0         0         0         0 
dram[1]:         0         0         0         0         0         0         0         0         0         0         0         0         0         0         0         0 
dram[2]:         0         0         0         0         0         0         0         0         0         0         0         0         0         0         0         0 
dram[3]:         0         0         0         0         0         0         0         0         0         0         0         0         0         0         0         0 
total accesses: 0
min_bank_accesses = 0!
min_chip_accesses = 0!
number of total read accesses:
dram[0]:       128       127       128       128       128       128       128       128       128       128       128       128       128       128       126       126 
dram[1]:       127       127       128       128       128       128       128       128       128       128       128       128       128       128       126       126 
dram[2]:       126       126       128       128       128       128       128       128       128       128       128       128       128       128       126       126 
dram[3]:       126       126       128       128       128       128       128       128       128       128       128       128       128       128       126       126 
total reads: 8165
bank skew: 128/126 = 1.02
chip skew: 2043/2040 = 1.00
number of total write accesses:
dram[0]:        62        62        64        64        64        64        64        64        64        64        64        64        64        64        62        62 
dram[1]:        62        62        64        64        64        64        64        64        64        64        64        64        64        64        62        62 
dram[2]:        62        62        64        64        64        64        64        64        64        64        64        64        64        64        62        62 
dram[3]:        62        62        64        64        64        64        64        64        64        64        64        64        64        64        62        62 
total reads: 4064
bank skew: 64/62 = 1.03
chip skew: 1016/1016 = 1.00
average mf latency per bank:
dram[0]:      33457     33905     36071     36520     36417     36876     37065     37427     43838     44099     45590     45935     18975     19465     19405     19918
dram[1]:      33822     33927     36422     36536     36738     36876     37330     37435     44024     44098     45833     45960     19380     19440     19796     19906
dram[2]:      34013     34077     36391     36509     36786     36877     37366     37416     44044     44089     45850     45926     19391     19421     19837     19879
dram[3]:      34011     27278     36400     28900     36807     29338     37373     29592     44059     34259     45879     35371     19436     15279     19897     15603
maximum mf latency per bank:
dram[0]:      49048     48999     43010     42694     43240     43064     41383     41236     49960     49934     48171     48137     41077     40805     41108     40938
dram[1]:      49009     49021     42887     42665     43139     43165     41247     41227     49858     49827     48152     48145     41009     40811     41129     40949
dram[2]:      48917     48866     42661     42701     43153     43182     41262     41272     49798     49850     47955     47948     41001     41072     40956     40928
dram[3]:      48908     48867     42694     42824     43197     43199     41279     41412     49800     49800     47992     48005     41057     41242     41095     41262
Memory Partition 0: 
Cache L2_bank_000:
MSHR contents

Cache L2_bank_001:
MSHR contents

In Dram Latency Queue (total = 0): 
DRAM[0]: 16 bks, busW=4 BL=8 CL=12, tRRD=2 tCCD=6, tRCD=12 tRAS=28 tRP=12 tRC=40
n_cmd=335813 n_nop=323325 n_act=134 n_pre=118 n_req=3059 n_rd=8172 n_write=4064 bw_util=0.07287
n_activity=30336 dram_eff=0.8067
bk0: 512a 328798i bk1: 508a 328323i bk2: 512a 327018i bk3: 512a 326419i bk4: 512a 326085i bk5: 512a 325611i bk6: 512a 326533i bk7: 512a 326108i bk8: 512a 328392i bk9: 512a 328001i bk10: 512a 327184i bk11: 512a 326658i bk12: 512a 328232i bk13: 512a 327787i bk14: 504a 328268i bk15: 504a 327870i 
dram_util_bins: 0 0 0 0 0 0 0 0 0 0
dram_eff_bins: 0 0 0 0 0 0 0 0 0 0
mrqq: max=64 avg=3.28209
Memory Partition 1: 
Cache L2_bank_002:
MSHR contents

Cache L2_bank_003:
MSHR contents
MSHR: tag=0xc00ff980, atomic=0 1 entries : 0x7f9bb2443880 :  mf: uid=188071, sid04:w06, part=1, addr=0xc00ff980, load , size=128, unknown  status = IN_PARTITION_DRAM (665141), 

In Dram Latency Queue (total = 0): 
DRAM[1]: 16 bks, busW=4 BL=8 CL=12, tRRD=2 tCCD=6, tRCD=12 tRAS=28 tRP=12 tRC=40
n_cmd=335813 n_nop=323329 n_act=135 n_pre=119 n_req=3058 n_rd=8166 n_write=4064 bw_util=0.07284
n_activity=29928 dram_eff=0.8173
bk0: 508a 328779i bk1: 508a 328296i bk2: 512a 326991i bk3: 512a 326392i bk4: 512a 326046i bk5: 512a 325582i bk6: 512a 326393i bk7: 512a 325993i bk8: 512a 328405i bk9: 512a 328038i bk10: 512a 327139i bk11: 512a 326663i bk12: 512a 327717i bk13: 512a 327459i bk14: 504a 327683i bk15: 502a 327133i 
dram_util_bins: 0 0 0 0 0 0 0 0 0 0
dram_eff_bins: 0 0 0 0 0 0 0 0 0 0
mrqq: max=64 avg=3.41289
Memory Partition 2: 
Cache L2_bank_004:
MSHR contents

Cache L2_bank_005:
MSHR contents

In Dram Latency Queue (total = 0): 
DRAM[2]: 16 bks, busW=4 BL=8 CL=12, tRRD=2 tCCD=6, tRCD=12 tRAS=28 tRP=12 tRC=40
n_cmd=335813 n_nop=323341 n_act=132 n_pre=116 n_req=3056 n_rd=8160 n_write=4064 bw_util=0.0728
n_activity=30209 dram_eff=0.8093
bk0: 504a 329619i bk1: 504a 329105i bk2: 512a 327905i bk3: 512a 327301i bk4: 512a 327257i bk5: 512a 326793i bk6: 512a 327425i bk7: 512a 327013i bk8: 512a 328907i bk9: 512a 328458i bk10: 512a 327817i bk11: 512a 327310i bk12: 512a 328769i bk13: 512a 328268i bk14: 504a 328351i bk15: 504a 327947i 
dram_util_bins: 0 0 0 0 0 0 0 0 0 0
dram_eff_bins: 0 0 0 0 0 0 0 0 0 0
mrqq: max=64 avg=3.34291
Memory Partition 3: 
Cache L2_bank_006:
MSHR contents

Cache L2_bank_007:
MSHR contents

In Dram Latency Queue (total = 0): 
DRAM[3]: 16 bks, busW=4 BL=8 CL=12, tRRD=2 tCCD=6, tRCD=12 tRAS=28 tRP=12 tRC=40
n_cmd=335813 n_nop=323341 n_act=132 n_pre=116 n_req=3056 n_rd=8160 n_write=4064 bw_util=0.0728
n_activity=30719 dram_eff=0.7959
bk0: 504a 329624i bk1: 504a 329129i bk2: 512a 327901i bk3: 512a 327292i bk4: 512a 327226i bk5: 512a 326753i bk6: 512a 327405i bk7: 512a 326981i bk8: 512a 329034i bk9: 512a 328621i bk10: 512a 327772i bk11: 512a 327257i bk12: 512a 329365i bk13: 512a 329029i bk14: 504a 328955i bk15: 504a 328602i 
dram_util_bins: 0 0 0 0 0 0 0 0 0 0
dram_eff_bins: 0 0 0 0 0 0 0 0 0 0
mrqq: max=64 avg=3.30809

========= L2 cache stats =========
L2_cache_bank[0]: Access = 6660, Miss = 1022, Miss_rate = 0.153, Pending_hits = 1124, Reservation_fails = 0
L2_cache_bank[1]: Access = 8156, Miss = 1021, Miss_rate = 0.125, Pending_hits = 1083, Reservation_fails = 3
L2_cache_bank[2]: Access = 8156, Miss = 1021, Miss_rate = 0.125, Pending_hits = 1073, Reservation_fails = 1
L2_cache_bank[3]: Access = 8156, Miss = 1021, Miss_rate = 0.125, Pending_hits = 1065, Reservation_fails = 11
L2_cache_bank[4]: Access = 8128, Miss = 1020, Miss_rate = 0.125, Pending_hits = 1056, Reservation_fails = 3
L2_cache_bank[5]: Access = 8128, Miss = 1020, Miss_rate = 0.125, Pending_hits = 1066, Reservation_fails = 6
L2_cache_bank[6]: Access = 8128, Miss = 1020, Miss_rate = 0.125, Pending_hits = 1058, Reservation_fails = 3
L2_cache_bank[7]: Access = 6604, Miss = 1020, Miss_rate = 0.154, Pending_hits = 531, Reservation_fails = 1
L2_total_cache_accesses = 62116
L2_total_cache_misses = 8165
L2_total_cache_miss_rate = 0.1314
L2_total_cache_pending_hits = 8056
L2_total_cache_reservation_fails = 28
L2_total_cache_breakdown:
	L2_cache_stats_breakdown[GLOBAL_ACC_R][HIT] = 45850
	L2_cache_stats_breakdown[GLOBAL_ACC_R][HIT_RESERVED] = 7966
	L2_cache_stats_breakdown[GLOBAL_ACC_R][MISS] = 4096
	L2_cache_stats_breakdown[GLOBAL_ACC_R][RESERVATION_FAIL] = 0
	L2_cache_stats_breakdown[LOCAL_ACC_R][HIT] = 0
	L2_cache_stats_breakdown[LOCAL_ACC_R][HIT_RESERVED] = 0
	L2_cache_stats_breakdown[LOCAL_ACC_R][MISS] = 0
	L2_cache_stats_breakdown[LOCAL_ACC_R][RESERVATION_FAIL] = 0
	L2_cache_stats_breakdown[CONST_ACC_R][HIT] = 0
	L2_cache_stats_breakdown[CONST_ACC_R][HIT_RESERVED] = 27
	L2_cache_stats_breakdown[CONST_ACC_R][MISS] = 1
	L2_cache_stats_breakdown[CONST_ACC_R][RESERVATION_FAIL] = 0
	L2_cache_stats_breakdown[TEXTURE_ACC_R][HIT] = 0
	L2_cache_stats_breakdown[TEXTURE_ACC_R][HIT_RESERVED] = 0
	L2_cache_stats_breakdown[TEXTURE_ACC_R][MISS] = 0
	L2_cache_stats_breakdown[TEXTURE_ACC_R][RESERVATION_FAIL] = 0
	L2_cache_stats_breakdown[GLOBAL_ACC_W][HIT] = 0
	L2_cache_stats_breakdown[GLOBAL_ACC_W][HIT_RESERVED] = 0
	L2_cache_stats_breakdown[GLOBAL_ACC_W][MISS] = 4064
	L2_cache_stats_breakdown[GLOBAL_ACC_W][RESERVATION_FAIL] = 28
	L2_cache_stats_breakdown[LOCAL_ACC_W][HIT] = 0
	L2_cache_stats_breakdown[LOCAL_ACC_W][HIT_RESERVED] = 0
	L2_cache_stats_breakdown[LOCAL_ACC_W][MISS] = 0
	L2_cache_stats_breakdown[LOCAL_ACC_W][RESERVATION_FAIL] = 0
	L2_cache_stats_breakdown[L1_WRBK_ACC][HIT] = 0
	L2_cache_stats_breakdown[L1_WRBK_ACC][HIT_RESERVED] = 0
	L2_cache_stats_breakdown[L1_WRBK_ACC][MISS] = 0
	L2_cache_stats_breakdown[L1_WRBK_ACC][RESERVATION_FAIL] = 0
	L2_cache_stats_breakdown[L2_WRBK_ACC][HIT] = 0
	L2_cache_stats_breakdown[L2_WRBK_ACC][HIT_RESERVED] = 0
	L2_cache_stats_breakdown[L2_WRBK_ACC][MISS] = 0
	L2_cache_stats_breakdown[L2_WRBK_ACC][RESERVATION_FAIL] = 0
	L2_cache_stats_breakdown[INST_ACC_R][HIT] = 45
	L2_cache_stats_breakdown[INST_ACC_R][HIT_RESERVED] = 63
	L2_cache_stats_breakdown[INST_ACC_R][MISS] = 4
	L2_cache_stats_breakdown[INST_ACC_R][RESERVATION_FAIL] = 0
	L2_cache_stats_breakdown[L1_WR_ALLOC_R][HIT] = 0
	L2_cache_stats_breakdown[L1_WR_ALLOC_R][HIT_RESERVED] = 0
	L2_cache_stats_breakdown[L1_WR_ALLOC_R][MISS] = 0
	L2_cache_stats_breakdown[L1_WR_ALLOC_R][RESERVATION_FAIL] = 0
	L2_cache_stats_breakdown[L2_WR_ALLOC_R][HIT] = 0
	L2_cache_stats_breakdown[L2_WR_ALLOC_R][HIT_RESERVED] = 0
	L2_cache_stats_breakdown[L2_WR_ALLOC_R][MISS] = 0
	L2_cache_stats_breakdown[L2_WR_ALLOC_R][RESERVATION_FAIL] = 0
	L2_cache_stats_breakdown[GLOBAL_ACC_R][TOTAL_ACCESS] = 57912
	L2_cache_stats_breakdown[CONST_ACC_R][TOTAL_ACCESS] = 28
	L2_cache_stats_breakdown[GLOBAL_ACC_W][TOTAL_ACCESS] = 4064
	L2_cache_stats_breakdown[INST_ACC_R][TOTAL_ACCESS] = 112
L2_cache_data_port_util = 0.090
L2_cache_fill_port_util = 0.023

icnt_total_pkts_mem_to_simt=230260
icnt_total_pkts_simt_to_mem=78372
LD_mem_lat_dist  0 0 0 0 0 0 0 0 0 0 0 0 0 0 0 0 0 0 0 0 0 0 0 0 0 0 0
ST_mem_lat_dist  0 0 0 0 0 0 0 0 0 0 0 0 0 0 0 0 0 0 0 0 0 0 0 0 0 0 0
----------------------------Interconnect-DETAILS--------------------------------
Class 0:
Packet latency average = 62.7454
	minimum = 6
	maximum = 1008
Network latency average = 46.9871
	minimum = 6
	maximum = 766
Slowest packet = fcbd
Flit latency average = 24.6587
	minimum = 6
	maximum = 766
Slowest flit = 39faa
Fragmentation average = 0.00692203
	minimum = 0
	maximum = 120
Injected packet rate average = 0.00698569
	minimum = 0 (at node 24)
	maximum = 0.0229039 (at node 1d)
Accepted packet rate average = 0.00698569
	minimum = 0 (at node 24)
	maximum = 0.0229039 (at node 1d)
Injected flit rate average = 0.0173497
	minimum = 0 (at node 24)
	maximum = 0.0830267 (at node 1d)
Accepted flit rate average= 0.0173497
	minimum = 0 (at node 24)
	maximum = 0.0286299 (at node 1d)
Injected packet length average = 2.48361
Accepted packet length average = 2.48361
Total in-flight flits = 0 (0 measured)
====== Overall Traffic Statistics ======
====== Traffic class 0 ======
Packet latency average = 63.0894 (2 samples)
	minimum = 6 (2 samples)
[...]
gpgpu_stall_shd_mem[g_mem_st][icnt_rc] = 0
gpgpu_stall_shd_mem[g_mem_st][wb_icnt_rc] = 0
gpgpu_stall_shd_mem[g_mem_st][wb_rsrv_fail] = 0
gpgpu_stall_shd_mem[l_mem_ld][mshr_rc] = 0
gpgpu_stall_shd_mem[l_mem_ld][icnt_rc] = 0
gpgpu_stall_shd_mem[l_mem_ld][wb_icnt_rc] = 0
gpgpu_stall_shd_mem[l_mem_ld][wb_rsrv_fail] = 0
gpgpu_stall_shd_mem[l_mem_st][mshr_rc] = 0
gpgpu_stall_shd_mem[l_mem_st][icnt_rc] = 0
gpgpu_stall_shd_mem[l_mem_ld][wb_icnt_rc] = 0
gpgpu_stall_shd_mem[l_mem_ld][wb_rsrv_fail] = 0
gpu_reg_bank_conflict_stalls = 0
Warp Occupancy Distribution:
Stall:2142527	W0_Idle:37279171	W0_Scoreboard:16650794	W1:0	W2:0	W3:0	W4:0	W5:0	W6:0	W7:0	W8:0	W9:0	W10:0	W11:0	W12:0	W13:0	W14:0	W15:0	W16:0	W17:0	W18:0	W19:0	W20:0	W21:0	W22:0	W23:0	W24:0	W25:0	W26:0	W27:0	W28:0	W29:0	W30:0	W31:289560	W32:1608008
traffic_breakdown_coretomem[CONST_ACC_R] = 224 {8:28,}
traffic_breakdown_coretomem[GLOBAL_ACC_R] = 4401312 {8:550164,}
traffic_breakdown_coretomem[GLOBAL_ACC_W] = 5250688 {136:38608,}
traffic_breakdown_coretomem[INST_ACC_R] = 896 {8:112,}
traffic_breakdown_memtocore[CONST_ACC_R] = 2016 {72:28,}
traffic_breakdown_memtocore[GLOBAL_ACC_R] = 55363872 {40:202692,136:347472,}
traffic_breakdown_memtocore[GLOBAL_ACC_W] = 308864 {8:38608,}
traffic_breakdown_memtocore[INST_ACC_R] = 15232 {136:112,}
maxmrqlatency = 704 
maxdqlatency = 0 
maxmflatency = 49960 
averagemflatency = 2533 
max_icnt2mem_latency = 49419 
max_icnt2sh_latency = 5972949 
mrq_lat_table:1103 	103 	194 	344 	723 	1064 	1969 	2900 	2793 	1036 	0 	0 	0 	0 	0 	0 	0 	0 	0 	0 	0 	0 	0 	0 	0 	0 	0 	0 	0 	0 	0 	0 	
dq_lat_table:0 	0 	0 	0 	0 	0 	0 	0 	0 	0 	0 	0 	0 	0 	0 	0 	0 	0 	0 	0 	0 	0 	0 	0 	0 	0 	0 	0 	0 	0 	0 	0 	
mf_lat_table:0 	0 	0 	0 	0 	0 	0 	83038 	248116 	143148 	15419 	17872 	33203 	22000 	16930 	9074 	0 	0 	0 	0 	0 	0 	0 	0 	0 	0 	0 	0 	0 	0 	0 	0 	
icnt2mem_lat_table:0 	0 	26102 	3372 	13026 	42050 	83354 	105141 	171592 	33326 	14638 	16139 	34348 	19879 	16957 	8988 	0 	0 	0 	0 	0 	0 	0 	0 	
icnt2sh_lat_table:0 	0 	345740 	186474 	17575 	333 	70 	0 	0 	0 	0 	0 	0 	0 	0 	0 	0 	0 	2032 	4064 	6096 	14224 	12192 	0 	
mf_lat_pw_table:0 	0 	0 	0 	0 	0 	0 	115 	92 	193 	144 	93 	29 	51 	78 	39 	0 	0 	0 	0 	0 	0 	0 	0 	0 	0 	0 	0 	0 	0 	0 	0 	
maximum concurrent accesses to same row:
dram[0]:        32        32        32        32        32        32        32        32        32        32        32        32        32        32        32        32 
dram[1]:        32        32        32        32        32        32        32        32        32        32        32        32        32        32        32        32 
dram[2]:        32        32        32        32        32        32        32        32        32        32        32        32        32        32        32        32 
dram[3]:        32        32        32        32        32        32        32        32        32        32        32        32        32        32        32        32 
maximum service time to same row:
dram[0]:     26684     23282     35383     35382     35425     35427     35467     35469     38464     38521     45791     45789     47006     47054     67642     67642 
dram[1]:     22927     23287     35382     35385     35427     35429     35450     35455     38603     38529     45789     45789     47060     47061     67642     67642 
dram[2]:     27250     27299     35390     35389     35497     35497     35513     35514     38638     38637     45789     45789     47062     47070     67827     67828 
dram[3]:     27307     27219     35389     35390     35487     35488     35500     35501     38563     38612     45789     45790     47052     47056     67827     67828 
average row accesses per activate:
dram[0]: 21.111111 21.000000 27.428572 27.428572 27.428572 27.428572 27.428572 27.428572 27.428572 27.428572 27.428572 27.428572 21.333334 21.333334 26.857143 26.857143 
dram[1]: 21.000000 21.000000 27.428572 27.428572 27.428572 27.428572 27.428572 27.428572 27.428572 27.428572 27.428572 27.428572 21.333334 21.333334 26.857143 26.857143 
dram[2]: 26.857143 26.857143 27.428572 27.428572 27.428572 27.428572 27.428572 27.428572 27.428572 27.428572 27.428572 27.428572 21.333334 21.333334 26.857143 26.857143 
dram[3]: 26.857143 26.857143 27.428572 27.428572 27.428572 27.428572 27.428572 27.428572 27.428572 27.428572 27.428572 27.428572 21.333334 21.333334 26.857143 26.857143 
average row locality = 12229/472 = 25.908897
number of total memory accesses made:
dram[0]:         0         0         0         0         0         0         0         0         0         0         0         0         0         0         0         0 
dram[1]:         0         0         0         0         0         0         0         0         0         0         0         0         0         0         0         0 
dram[2]:         0         0         0         0         0         0         0         0         0         0         0         0         0         0         0         0 
dram[3]:         0         0         0         0         0         0         0         0         0         0         0         0         0         0         0         0 
total accesses: 0
min_bank_accesses = 0!
min_chip_accesses = 0!
number of total read accesses:
dram[0]:       128       127       128       128       128       128       128       128       128       128       128       128       128       128       126       126 
dram[1]:       127       127       128       128       128       128       128       128       128       128       128       128       128       128       126       126 
dram[2]:       126       126       128       128       128       128       128       128       128       128       128       128       128       128       126       126 
dram[3]:       126       126       128       128       128       128       128       128       128       128       128       128       128       128       126       126 
total reads: 8165
bank skew: 128/126 = 1.02
chip skew: 2043/2040 = 1.00
number of total write accesses:
dram[0]:        62        62        64        64        64        64        64        64        64        64        64        64        64        64        62        62 
dram[1]:        62        62        64        64        64        64        64        64        64        64        64        64        64        64        62        62 
dram[2]:        62        62        64        64        64        64        64        64        64        64        64        64        64        64        62        62 
dram[3]:        62        62        64        64        64        64        64        64        64        64        64        64        64        64        62        62 
total reads: 4064
bank skew: 64/62 = 1.03
chip skew: 1016/1016 = 1.00
average mf latency per bank:
dram[0]:     112132    120107    121349    129355    126497    132963    129237    138476    154839    162899    167293    175449     66969     73236     68472     74853
dram[1]:     122263    120593    125661    126218    129535    131324    137239    134226    163069    161224    174552    172761     75073     72780     75570     75681
dram[2]:     121281    121780    129241    132074    131974    132817    135213    136765    160794    162480    173221    175662     73439     73087     75510     75530
dram[3]:     120267    100113    130435    106020    131639    109806    133620    110922    160542    134384    176061    144599     75031     60229     73420     60966
maximum mf latency per bank:
dram[0]:      49048     48999     43010     42694     43240     43064     41383     41236     49960     49934     48171     48137     41077     40805     41108     40938
dram[1]:      49009     49021     42887     42665     43139     43165     41247     41227     49858     49827     48152     48145     41009     40811     41129     40949
dram[2]:      48917     48866     42661     42701     43153     43182     41262     41272     49798     49850     47955     47948     41001     41072     40956     40928
dram[3]:      48908     48867     42694     42824     43197     43199     41279     41412     49800     49800     47992     48005     41057     41242     41095     41262
Memory Partition 0: 
Cache L2_bank_000:
MSHR contents

Cache L2_bank_001:
MSHR contents

In Dram Latency Queue (total = 0): 
DRAM[0]: 16 bks, busW=4 BL=8 CL=12, tRRD=2 tCCD=6, tRCD=12 tRAS=28 tRP=12 tRC=40
n_cmd=1916767 n_nop=1904279 n_act=134 n_pre=118 n_req=3059 n_rd=8172 n_write=4064 bw_util=0.01277
n_activity=30336 dram_eff=0.8067
bk0: 512a 1909752i bk1: 508a 1909277i bk2: 512a 1907972i bk3: 512a 1907373i bk4: 512a 1907039i bk5: 512a 1906565i bk6: 512a 1907487i bk7: 512a 1907062i bk8: 512a 1909346i bk9: 512a 1908955i bk10: 512a 1908138i bk11: 512a 1907612i bk12: 512a 1909186i bk13: 512a 1908741i bk14: 504a 1909222i bk15: 504a 1908824i 
dram_util_bins: 0 0 0 0 0 0 0 0 0 0
dram_eff_bins: 0 0 0 0 0 0 0 0 0 0
mrqq: max=64 avg=0.575015
Memory Partition 1: 
Cache L2_bank_002:
MSHR contents

Cache L2_bank_003:
MSHR contents

In Dram Latency Queue (total = 0): 
DRAM[1]: 16 bks, busW=4 BL=8 CL=12, tRRD=2 tCCD=6, tRCD=12 tRAS=28 tRP=12 tRC=40
n_cmd=1916767 n_nop=1904281 n_act=135 n_pre=119 n_req=3058 n_rd=8168 n_write=4064 bw_util=0.01276
n_activity=29942 dram_eff=0.817
bk0: 508a 1909733i bk1: 508a 1909250i bk2: 512a 1907945i bk3: 512a 1907346i bk4: 512a 1907000i bk5: 512a 1906536i bk6: 512a 1907347i bk7: 512a 1906947i bk8: 512a 1909359i bk9: 512a 1908992i bk10: 512a 1908093i bk11: 512a 1907617i bk12: 512a 1908671i bk13: 512a 1908413i bk14: 504a 1908637i bk15: 504a 1908084i 
dram_util_bins: 0 0 0 0 0 0 0 0 0 0
dram_eff_bins: 0 0 0 0 0 0 0 0 0 0
mrqq: max=64 avg=0.59793
Memory Partition 2: 
Cache L2_bank_004:
MSHR contents

Cache L2_bank_005:
MSHR contents

In Dram Latency Queue (total = 0): 
DRAM[2]: 16 bks, busW=4 BL=8 CL=12, tRRD=2 tCCD=6, tRCD=12 tRAS=28 tRP=12 tRC=40
n_cmd=1916767 n_nop=1904295 n_act=132 n_pre=116 n_req=3056 n_rd=8160 n_write=4064 bw_util=0.01275
n_activity=30209 dram_eff=0.8093
bk0: 504a 1910573i bk1: 504a 1910059i bk2: 512a 1908859i bk3: 512a 1908255i bk4: 512a 1908211i bk5: 512a 1907747i bk6: 512a 1908379i bk7: 512a 1907967i bk8: 512a 1909861i bk9: 512a 1909412i bk10: 512a 1908771i bk11: 512a 1908264i bk12: 512a 1909723i bk13: 512a 1909222i bk14: 504a 1909305i bk15: 504a 1908901i 
dram_util_bins: 0 0 0 0 0 0 0 0 0 0
dram_eff_bins: 0 0 0 0 0 0 0 0 0 0
mrqq: max=64 avg=0.585669
Memory Partition 3: 
Cache L2_bank_006:
MSHR contents

Cache L2_bank_007:
MSHR contents

In Dram Latency Queue (total = 0): 
DRAM[3]: 16 bks, busW=4 BL=8 CL=12, tRRD=2 tCCD=6, tRCD=12 tRAS=28 tRP=12 tRC=40
n_cmd=1916767 n_nop=1904295 n_act=132 n_pre=116 n_req=3056 n_rd=8160 n_write=4064 bw_util=0.01275
n_activity=30719 dram_eff=0.7959
bk0: 504a 1910578i bk1: 504a 1910083i bk2: 512a 1908855i bk3: 512a 1908246i bk4: 512a 1908180i bk5: 512a 1907707i bk6: 512a 1908359i bk7: 512a 1907935i bk8: 512a 1909988i bk9: 512a 1909575i bk10: 512a 1908726i bk11: 512a 1908211i bk12: 512a 1910319i bk13: 512a 1909983i bk14: 504a 1909909i bk15: 504a 1909556i 
dram_util_bins: 0 0 0 0 0 0 0 0 0 0
dram_eff_bins: 0 0 0 0 0 0 0 0 0 0
mrqq: max=64 avg=0.57957

========= L2 cache stats =========
L2_cache_bank[0]: Access = 62794, Miss = 1022, Miss_rate = 0.016, Pending_hits = 1124, Reservation_fails = 0
L2_cache_bank[1]: Access = 77244, Miss = 1021, Miss_rate = 0.013, Pending_hits = 1083, Reservation_fails = 3
L2_cache_bank[2]: Access = 77244, Miss = 1021, Miss_rate = 0.013, Pending_hits = 1073, Reservation_fails = 1
L2_cache_bank[3]: Access = 77244, Miss = 1021, Miss_rate = 0.013, Pending_hits = 1065, Reservation_fails = 11
L2_cache_bank[4]: Access = 77216, Miss = 1020, Miss_rate = 0.013, Pending_hits = 1056, Reservation_fails = 3
L2_cache_bank[5]: Access = 77216, Miss = 1020, Miss_rate = 0.013, Pending_hits = 1066, Reservation_fails = 6
L2_cache_bank[6]: Access = 77216, Miss = 1020, Miss_rate = 0.013, Pending_hits = 1058, Reservation_fails = 3
L2_cache_bank[7]: Access = 62738, Miss = 1020, Miss_rate = 0.016, Pending_hits = 531, Reservation_fails = 1
L2_total_cache_accesses = 588912
L2_total_cache_misses = 8165
L2_total_cache_miss_rate = 0.0139
L2_total_cache_pending_hits = 8056
L2_total_cache_reservation_fails = 28
L2_total_cache_breakdown:
	L2_cache_stats_breakdown[GLOBAL_ACC_R][HIT] = 538102
	L2_cache_stats_breakdown[GLOBAL_ACC_R][HIT_RESERVED] = 7966
	L2_cache_stats_breakdown[GLOBAL_ACC_R][MISS] = 4096
	L2_cache_stats_breakdown[GLOBAL_ACC_R][RESERVATION_FAIL] = 0
	L2_cache_stats_breakdown[LOCAL_ACC_R][HIT] = 0
	L2_cache_stats_breakdown[LOCAL_ACC_R][HIT_RESERVED] = 0
	L2_cache_stats_breakdown[LOCAL_ACC_R][MISS] = 0
	L2_cache_stats_breakdown[LOCAL_ACC_R][RESERVATION_FAIL] = 0
	L2_cache_stats_breakdown[CONST_ACC_R][HIT] = 0
	L2_cache_stats_breakdown[CONST_ACC_R][HIT_RESERVED] = 27
	L2_cache_stats_breakdown[CONST_ACC_R][MISS] = 1
	L2_cache_stats_breakdown[CONST_ACC_R][RESERVATION_FAIL] = 0
	L2_cache_stats_breakdown[TEXTURE_ACC_R][HIT] = 0
	L2_cache_stats_breakdown[TEXTURE_ACC_R][HIT_RESERVED] = 0
	L2_cache_stats_breakdown[TEXTURE_ACC_R][MISS] = 0
	L2_cache_stats_breakdown[TEXTURE_ACC_R][RESERVATION_FAIL] = 0
	L2_cache_stats_breakdown[GLOBAL_ACC_W][HIT] = 34544
	L2_cache_stats_breakdown[GLOBAL_ACC_W][HIT_RESERVED] = 0
	L2_cache_stats_breakdown[GLOBAL_ACC_W][MISS] = 4064
	L2_cache_stats_breakdown[GLOBAL_ACC_W][RESERVATION_FAIL] = 28
	L2_cache_stats_breakdown[LOCAL_ACC_W][HIT] = 0
	L2_cache_stats_breakdown[LOCAL_ACC_W][HIT_RESERVED] = 0
	L2_cache_stats_breakdown[LOCAL_ACC_W][MISS] = 0
	L2_cache_stats_breakdown[LOCAL_ACC_W][RESERVATION_FAIL] = 0
	L2_cache_stats_breakdown[L1_WRBK_ACC][HIT] = 0
	L2_cache_stats_breakdown[L1_WRBK_ACC][HIT_RESERVED] = 0
	L2_cache_stats_breakdown[L1_WRBK_ACC][MISS] = 0
	L2_cache_stats_breakdown[L1_WRBK_ACC][RESERVATION_FAIL] = 0
	L2_cache_stats_breakdown[L2_WRBK_ACC][HIT] = 0
	L2_cache_stats_breakdown[L2_WRBK_ACC][HIT_RESERVED] = 0
	L2_cache_stats_breakdown[L2_WRBK_ACC][MISS] = 0
	L2_cache_stats_breakdown[L2_WRBK_ACC][RESERVATION_FAIL] = 0
	L2_cache_stats_breakdown[INST_ACC_R][HIT] = 45
	L2_cache_stats_breakdown[INST_ACC_R][HIT_RESERVED] = 63
	L2_cache_stats_breakdown[INST_ACC_R][MISS] = 4
	L2_cache_stats_breakdown[INST_ACC_R][RESERVATION_FAIL] = 0
	L2_cache_stats_breakdown[L1_WR_ALLOC_R][HIT] = 0
	L2_cache_stats_breakdown[L1_WR_ALLOC_R][HIT_RESERVED] = 0
	L2_cache_stats_breakdown[L1_WR_ALLOC_R][MISS] = 0
	L2_cache_stats_breakdown[L1_WR_ALLOC_R][RESERVATION_FAIL] = 0
	L2_cache_stats_breakdown[L2_WR_ALLOC_R][HIT] = 0
	L2_cache_stats_breakdown[L2_WR_ALLOC_R][HIT_RESERVED] = 0
	L2_cache_stats_breakdown[L2_WR_ALLOC_R][MISS] = 0
	L2_cache_stats_breakdown[L2_WR_ALLOC_R][RESERVATION_FAIL] = 0
	L2_cache_stats_breakdown[GLOBAL_ACC_R][TOTAL_ACCESS] = 550164
	L2_cache_stats_breakdown[CONST_ACC_R][TOTAL_ACCESS] = 28
	L2_cache_stats_breakdown[GLOBAL_ACC_W][TOTAL_ACCESS] = 38608
	L2_cache_stats_breakdown[INST_ACC_R][TOTAL_ACCESS] = 112
L2_cache_data_port_util = 0.205
L2_cache_fill_port_util = 0.004

icnt_total_pkts_mem_to_simt=2181996
icnt_total_pkts_simt_to_mem=743344
LD_mem_lat_dist  0 0 0 0 0 0 0 0 0 0 0 0 0 0 0 0 0 0 0 0 0 0 0 0 0 0 0
ST_mem_lat_dist  0 0 0 0 0 0 0 0 0 0 0 0 0 0 0 0 0 0 0 0 0 0 0 0 0 0 0
----------------------------Interconnect-DETAILS--------------------------------
Class 0:
Packet latency average = 202.295
	minimum = 6
	maximum = 1804
Network latency average = 107.815
	minimum = 6
	maximum = 1650
Slowest packet = 110aec
Flit latency average = 49.5291
	minimum = 6
	maximum = 1650
Slowest flit = 2ba3bd
Fragmentation average = 0.0203789
	minimum = 0
	maximum = 373
Injected packet rate average = 0.0124112
	minimum = 0 (at node 24)
	maximum = 0.0406925 (at node 1d)
Accepted packet rate average = 0.0124112
	minimum = 0 (at node 24)
	maximum = 0.0406925 (at node 1d)
Injected flit rate average = 0.0308246
	minimum = 0 (at node 24)
	maximum = 0.14751 (at node 1d)
Accepted flit rate average= 0.0308246
	minimum = 0 (at node 24)
	maximum = 0.0508656 (at node 1d)
Injected packet length average = 2.48361
Accepted packet length average = 2.48361
Total in-flight flits = 0 (0 measured)
====== Overall Traffic Statistics ======
====== Traffic class 0 ======
Packet latency average = 189.081 (13 samples)
	minimum = 6 (13 samples)
	maximum = 1734.42 (13 samples)
Network latency average = 101.654 (13 samples)
	minimum = 6 (13 samples)
	maximum = 1359.42 (13 samples)
Flit latency average = 46.7597 (13 samples)
	minimum = 6 (13 samples)
	maximum = 1359.42 (13 samples)
Fragmentation average = 0.0209868 (13 samples)
	minimum = 0 (13 samples)
	maximum = 389.474 (13 samples)
Injected packet rate average = 0.011798 (13 samples)
	minimum = 0 (13 samples)
	maximum = 0.0386847 (13 samples)
Accepted packet rate average = 0.011798 (13 samples)
	minimum = 0 (13 samples)
	maximum = 0.0386847 (13 samples)
Injected flit rate average = 0.0293021 (13 samples)
	minimum = 0 (13 samples)
	maximum = 0.140243 (13 samples)
Accepted flit rate average = 0.0293021 (13 samples)
	minimum = 0 (13 samples)
	maximum = 0.0483539 (13 samples)
Injected packet size average = 2.48365 (13 samples)
Accepted packet size average = 2.48365 (13 samples)
Hops average = 1 (13 samples)
----------------------------END-of-Interconnect-DETAILS-------------------------


gpgpu_simulation_time = 0 days, 2 hrs, 47 min, 22 sec (10042 sec)
gpgpu_simulation_rate = 5895 (inst/sec)
gpgpu_simulation_rate = 594 (cycle/sec)

GPGPU-Sim PTX: cudaLaunch for 0x0x400f19 (mode=performance simulation) on stream 0
GPGPU-Sim PTX: pushing kernel '_Z20Convolution2D_kernelPfS_' to stream 0, gridDim= (8,32,1) blockDim = (32,8,1) 
GPGPU-Sim uArch: Shader 21 bind to kernel 20 '_Z20Convolution2D_kernelPfS_'
GPGPU-Sim uArch: Shader 22 bind to kernel 20 '_Z20Convolution2D_kernelPfS_'
GPGPU-Sim uArch: Shader 23 bind to kernel 20 '_Z20Convolution2D_kernelPfS_'
GPGPU-Sim uArch: Shader 24 bind to kernel 20 '_Z20Convolution2D_kernelPfS_'
GPGPU-Sim uArch: Shader 25 bind to kernel 20 '_Z20Convolution2D_kernelPfS_'
GPGPU-Sim uArch: Shader 26 bind to kernel 20 '_Z20Convolution2D_kernelPfS_'
GPGPU-Sim uArch: Shader 27 bind to kernel 20 '_Z20Convolution2D_kernelPfS_'
GPGPU-Sim uArch: Shader 0 bind to kernel 20 '_Z20Convolution2D_kernelPfS_'
GPGPU-Sim uArch: Shader 1 bind to kernel 20 '_Z20Convolution2D_kernelPfS_'
GPGPU-Sim uArch: Shader 2 bind to kernel 20 '_Z20Convolution2D_kernelPfS_'
GPGPU-Sim uArch: Shader 3 bind to kernel 20 '_Z20Convolution2D_kernelPfS_'
GPGPU-Sim uArch: Shader 4 bind to kernel 20 '_Z20Convolution2D_kernelPfS_'
GPGPU-Sim uArch: Shader 5 bind to kernel 20 '_Z20Convolution2D_kernelPfS_'
GPGPU-Sim uArch: Shader 6 bind to kernel 20 '_Z20Convolution2D_kernelPfS_'
GPGPU-Sim uArch: Shader 7 bind to kernel 20 '_Z20Convolution2D_kernelPfS_'
GPGPU-Sim uArch: Shader 8 bind to kernel 20 '_Z20Convolution2D_kernelPfS_'
GPGPU-Sim uArch: Shader 9 bind to kernel 20 '_Z20Convolution2D_kernelPfS_'
GPGPU-Sim uArch: Shader 10 bind to kernel 20 '_Z20Convolution2D_kernelPfS_'
GPGPU-Sim uArch: Shader 11 bind to kernel 20 '_Z20Convolution2D_kernelPfS_'
GPGPU-Sim uArch: Shader 12 bind to kernel 20 '_Z20Convolution2D_kernelPfS_'
GPGPU-Sim uArch: Shader 13 bind to kernel 20 '_Z20Convolution2D_kernelPfS_'
GPGPU-Sim uArch: Shader 14 bind to kernel 20 '_Z20Convolution2D_kernelPfS_'
GPGPU-Sim uArch: Shader 15 bind to kernel 20 '_Z20Convolution2D_kernelPfS_'
GPGPU-Sim uArch: Shader 16 bind to kernel 20 '_Z20Convolution2D_kernelPfS_'
GPGPU-Sim uArch: Shader 17 bind to kernel 20 '_Z20Convolution2D_kernelPfS_'
GPGPU-Sim uArch: Shader 18 bind to kernel 20 '_Z20Convolution2D_kernelPfS_'
GPGPU-Sim uArch: Shader 19 bind to kernel 20 '_Z20Convolution2D_kernelPfS_'
GPGPU-Sim uArch: Shader 20 bind to kernel 20 '_Z20Convolution2D_kernelPfS_'
Fault address : 0xc00ca
GHB MISS, adding to GHB at position 4c
Fault address : 0xc00d8
GHB MISS, adding to GHB at position 4d
Fault address : 0xc00e2
GHB MISS, adding to GHB at position 4e
Fault address : 0xc00f4
GHB MISS, adding to GHB at position 4f
