

        *** GPGPU-Sim Simulator Version 3.2.2  [build gpgpu-sim_git-commit-c46ada6511a85df09b4a05ed1260f0ff10279dc1_modified_597] ***


GPGPU-Sim PTX: simulation mode 0 (can change with PTX_SIM_MODE_FUNC environment variable:
               1=functional simulation only, 0=detailed performance simulator)
GPGPU-Sim: Configuration options:

-network_mode                           1 # Interconnection network mode
-inter_config_file   config_fermi_islip.icnt # Interconnection network config file
-gpgpu_ptx_use_cuobjdump                    1 # Use cuobjdump to extract ptx and sass from binaries
-gpgpu_experimental_lib_support                    0 # Try to extract code from cuda libraries [Broken because of unknown cudaGetExportTable]
-gpgpu_ptx_convert_to_ptxplus                    0 # Convert SASS (native ISA) to ptxplus and run ptxplus
-gpgpu_ptx_force_max_capability                   20 # Force maximum compute capability
-gpgpu_ptx_inst_debug_to_file                    0 # Dump executed instructions' debug information to file
-gpgpu_ptx_inst_debug_file       inst_debug.txt # Executed instructions' debug output file
-gpgpu_ptx_inst_debug_thread_uid                    1 # Thread UID for executed instructions' debug output
-gpgpu_simd_model                       1 # 1 = post-dominator
-gpgpu_shader_core_pipeline              2048:32 # shader core pipeline config, i.e., {<nthread>:<warpsize>}
-gpgpu_tex_cache:l1  16:128:24,L:R:m:N:L,F:128:4,128:2 # per-shader L1 texture cache  (READ-ONLY) config  {<nsets>:<bsize>:<assoc>,<rep>:<wr>:<alloc>:<wr_alloc>,<mshr>:<N>:<merge>,<mq>:<rf>}
-gpgpu_const_cache:l1 128:64:2,L:R:f:N:L,A:2:64,4 # per-shader L1 constant memory cache  (READ-ONLY) config  {<nsets>:<bsize>:<assoc>,<rep>:<wr>:<alloc>:<wr_alloc>,<mshr>:<N>:<merge>,<mq>} 
-gpgpu_cache:il1     8:128:4,L:R:f:N:L,A:2:48,4 # shader L1 instruction cache config  {<nsets>:<bsize>:<assoc>,<rep>:<wr>:<alloc>:<wr_alloc>,<mshr>:<N>:<merge>,<mq>} 
-gpgpu_cache:dl1     64:128:6,L:L:m:N:H,A:128:8,8 # per-shader L1 data cache config  {<nsets>:<bsize>:<assoc>,<rep>:<wr>:<alloc>:<wr_alloc>,<mshr>:<N>:<merge>,<mq> | none}
-gpgpu_cache:dl1PrefL1                 none # per-shader L1 data cache config  {<nsets>:<bsize>:<assoc>,<rep>:<wr>:<alloc>:<wr_alloc>,<mshr>:<N>:<merge>,<mq> | none}
-gpgpu_cache:dl1PrefShared                 none # per-shader L1 data cache config  {<nsets>:<bsize>:<assoc>,<rep>:<wr>:<alloc>:<wr_alloc>,<mshr>:<N>:<merge>,<mq> | none}
-gmem_skip_L1D                          1 # global memory access skip L1D cache (implements -Xptxas -dlcm=cg, default=no skip)
-gpgpu_perfect_mem                      0 # enable perfect memory mode (no cache miss)
-n_regfile_gating_group                    4 # group of lanes that should be read/written together)
-gpgpu_clock_gated_reg_file                    0 # enable clock gated reg file for power calculations
-gpgpu_clock_gated_lanes                    0 # enable clock gated lanes for power calculations
-gpgpu_shader_registers                65536 # Number of registers per shader core. Limits number of concurrent CTAs. (default 8192)
-gpgpu_shader_cta                      32 # Maximum number of concurrent CTAs in shader (default 8)
-gpgpu_num_cta_barriers                   16 # Maximum number of named barriers per CTA (default 16)
-gpgpu_n_clusters                      28 # number of processing clusters
-gpgpu_n_cores_per_cluster                    1 # number of simd cores per cluster
-gpgpu_n_cluster_ejection_buffer_size                    8 # number of packets in ejection buffer
-gpgpu_n_ldst_response_buffer_size                    2 # number of response packets in ld/st unit ejection buffer
-gpgpu_shmem_size                   16384 # Size of shared memory per shader core (default 16kB)
-gpgpu_shmem_size                   98304 # Size of shared memory per shader core (default 16kB)
-gpgpu_shmem_size_PrefL1                16384 # Size of shared memory per shader core (default 16kB)
-gpgpu_shmem_size_PrefShared                16384 # Size of shared memory per shader core (default 16kB)
-gpgpu_shmem_num_banks                   32 # Number of banks in the shared memory in each shader core (default 16)
-gpgpu_shmem_limited_broadcast                    0 # Limit shared memory to do one broadcast per cycle (default on)
-gpgpu_shmem_warp_parts                    1 # Number of portions a warp is divided into for shared memory bank conflict check 
-gpgpu_warpdistro_shader                   -1 # Specify which shader core to collect the warp size distribution from
-gpgpu_warp_issue_shader                    0 # Specify which shader core to collect the warp issue distribution from
-gpgpu_local_mem_map                    1 # Mapping from local memory space address to simulated GPU physical address space (default = enabled)
-gpgpu_num_reg_banks                   32 # Number of register banks (default = 8)
-gpgpu_reg_bank_use_warp_id                    0 # Use warp ID in mapping registers to banks (default = off)
-gpgpu_operand_collector_num_units_sp                   20 # number of collector units (default = 4)
-gpgpu_operand_collector_num_units_sfu                    4 # number of collector units (default = 4)
-gpgpu_operand_collector_num_units_mem                    8 # number of collector units (default = 2)
-gpgpu_operand_collector_num_units_gen                    0 # number of collector units (default = 0)
-gpgpu_operand_collector_num_in_ports_sp                    4 # number of collector unit in ports (default = 1)
-gpgpu_operand_collector_num_in_ports_sfu                    1 # number of collector unit in ports (default = 1)
-gpgpu_operand_collector_num_in_ports_mem                    1 # number of collector unit in ports (default = 1)
-gpgpu_operand_collector_num_in_ports_gen                    0 # number of collector unit in ports (default = 0)
-gpgpu_operand_collector_num_out_ports_sp                    4 # number of collector unit in ports (default = 1)
-gpgpu_operand_collector_num_out_ports_sfu                    1 # number of collector unit in ports (default = 1)
-gpgpu_operand_collector_num_out_ports_mem                    1 # number of collector unit in ports (default = 1)
-gpgpu_operand_collector_num_out_ports_gen                    0 # number of collector unit in ports (default = 0)
-gpgpu_coalesce_arch                   13 # Coalescing arch (default = 13, anything else is off for now)
-gpgpu_num_sched_per_core                    2 # Number of warp schedulers per core
-gpgpu_max_insn_issue_per_warp                    2 # Max number of instructions that can be issued per warp in one cycle by scheduler
-gpgpu_simt_core_sim_order                    1 # Select the simulation order of cores in a cluster (0=Fix, 1=Round-Robin)
-gpgpu_pipeline_widths        4,1,1,4,1,1,6 # Pipeline widths ID_OC_SP,ID_OC_SFU,ID_OC_MEM,OC_EX_SP,OC_EX_SFU,OC_EX_MEM,EX_WB
-gpgpu_num_sp_units                     4 # Number of SP units (default=1)
-gpgpu_num_sfu_units                    1 # Number of SF units (default=1)
-gpgpu_num_mem_units                    1 # Number if ldst units (default=1) WARNING: not hooked up to anything
-gpgpu_scheduler                      gto # Scheduler configuration: < lrr | gto | two_level_active > If two_level_active:<num_active_warps>:<inner_prioritization>:<outer_prioritization>For complete list of prioritization values see shader.h enum scheduler_prioritization_typeDefault: gto
-gpgpu_concurrent_kernel_sm                    0 # Support concurrent kernels on a SM (default = disabled)
-tlb_size                              16 # Number of tlb entries per SM.
-gpgpu_dram_scheduler                    1 # 0 = fifo, 1 = FR-FCFS (defaul)
-gpgpu_dram_partition_queues              8:8:8:8 # i2$:$2d:d2$:$2i
-l2_ideal                               0 # Use a ideal L2 cache that always hit
-gpgpu_cache:dl2     64:128:16,L:B:m:W:L,A:1024:1024,4:0,32 # unified banked L2 data cache config  {<nsets>:<bsize>:<assoc>,<rep>:<wr>:<alloc>:<wr_alloc>,<mshr>:<N>:<merge>,<mq>}
-gpgpu_cache:dl2_texture_only                    0 # L2 cache used for texture only
-gpgpu_n_mem                            4 # number of memory modules (e.g. memory controllers) in gpu
-gpgpu_n_sub_partition_per_mchannel                    2 # number of memory subpartition in each memory module
-gpgpu_n_mem_per_ctrlr                    1 # number of memory chips per memory controller
-gpgpu_memlatency_stat                   14 # track and display latency statistics 0x2 enables MC, 0x4 enables queue logs
-gpgpu_frfcfs_dram_sched_queue_size                   64 # 0 = unlimited (default); # entries per chip
-gpgpu_dram_return_queue_size                  116 # 0 = unlimited (default); # entries per chip
-gpgpu_dram_buswidth                    4 # default = 4 bytes (8 bytes per cycle at DDR)
-gpgpu_dram_burst_length                    8 # Burst length of each DRAM request (default = 4 data bus cycle)
-dram_data_command_freq_ratio                    4 # Frequency ratio between DRAM data bus and command bus (default = 2 times, i.e. DDR)
-gpgpu_dram_timing_opt nbk=16:CCD=2:RRD=6:RCD=12:RAS=28:RP=12:RC=40: CL=12:WL=4:CDLR=5:WR=12:nbkgrp=1:CCDL=0:RTPL=0 # DRAM timing parameters = {nbk:tCCD:tRRD:tRCD:tRAS:tRP:tRC:CL:WL:tCDLR:tWR:nbkgrp:tCCDL:tRTPL}
-rop_latency                          120 # ROP queue latency (default 85)
-dram_latency                         100 # DRAM latency (default 30)
-gpgpu_mem_addr_mapping dramid@8;00000000.00000000.00000000.00000000.0000RRRR.RRRRRRRR.RBBBCCCC.BCCSSSSS # mapping memory address to dram model {dramid@<start bit>;<memory address map>}
-gpgpu_mem_addr_test                    0 # run sweep test to check address mapping for aliased address
-gpgpu_mem_address_mask                    1 # 0 = old addressing mask, 1 = new addressing mask, 2 = new add. mask + flipped bank sel and chip sel bits
-gpuwattch_xml_file  gpuwattch_geforcegtx1080ti.xml # GPUWattch XML file
-power_simulation_enabled                    1 # Turn on power simulator (1=On, 0=Off)
-power_per_cycle_dump                    0 # Dump detailed power output each cycle
-power_trace_enabled                    0 # produce a file for the power trace (1=On, 0=Off)
-power_trace_zlevel                     6 # Compression level of the power trace output log (0=no comp, 9=highest)
-steady_power_levels_enabled                    0 # produce a file for the steady power levels (1=On, 0=Off)
-steady_state_definition                  8:4 # allowed deviation:number of samples
-gpgpu_max_cycle                        0 # terminates gpu simulation early (0 = no limit)
-gpgpu_max_insn                         0 # terminates gpu simulation early (0 = no limit)
-gpgpu_max_cta                          0 # terminates gpu simulation early (0 = no limit)
-gpgpu_runtime_stat                   500 # display runtime statistics such as dram utilization {<freq>:<flag>}
-liveness_message_freq                    1 # Minimum number of seconds between simulation liveness messages (0 = always print)
-gpgpu_flush_l1_cache                    0 # Flush L1 cache at the end of each kernel call
-gpgpu_flush_l2_cache                    0 # Flush L2 cache at the end of each kernel call
-gpgpu_deadlock_detect                    0 # Stop the simulation at deadlock (1=on (default), 0=off)
-gpgpu_ptx_instruction_classification                    0 # if enabled will classify ptx instruction types per kernel (Max 255 kernels now)
-gpgpu_ptx_sim_mode                     0 # Select between Performance (default) or Functional simulation (1)
-gpgpu_clock_domains 1481.0:2962.0:1481.0:2750.0 # Clock Domain Frequencies in MhZ {<Core Clock>:<ICNT Clock>:<L2 Clock>:<DRAM Clock>}
-gpgpu_max_concurrent_kernel                    8 # maximum kernels that can run concurrently on GPU
-gpgpu_cflog_interval                    0 # Interval between each snapshot in control flow logger
-visualizer_enabled                     0 # Turn on visualizer output (1=On, 0=Off)
-visualizer_outputfile                 NULL # Specifies the output log file for visualizer
-visualizer_zlevel                      6 # Compression level of the visualizer output log (0=no comp, 9=highest)
-trace_enabled                          0 # Turn on traces
-trace_components                    none # comma seperated list of traces to enable. Complete list found in trace_streams.tup. Default none
-trace_sampling_core                    0 # The core which is printed using CORE_DPRINTF. Default 0
-trace_sampling_memory_partition                   -1 # The memory partition which is printed using MEMPART_DPRINTF. Default -1 (i.e. all)
-gddr_size                          256MB # Size of GDDR in MB/GB.(GLOBAL_HEAP_START, GLOBAL_HEAP_START + gddr_size) would be used for unmanged memory, (GLOBAL_HEAP_START + gddr_size, GLOBAL_HEAP_START + gddr_size*2) would be used for managed memory. 
-page_table_walk_latency                  100 # Average page table walk latency (in core cycle).
-eviction_policy                        5 # Select page eviction policy
-invalidate_clean                       0 # Should directly invalidate clean pages
-reserve_accessed_page_percent                    0 # Percentage of accessed pages reserved from eviction in hope that they will be accessed in next iteration.
-percentage_of_free_page_buffer                    0 # Percentage of free page buffer to trigger the page eviction.
-page_size                            4KB # GDDR page size, only 4KB/2MB avaliable.
-pcie_bandwidth                  16.0GB/s # PCI-e bandwidth per direction, in GB/s.
-enable_dma                             0 # Enable direct access to CPU memory
-multiply_dma_penalty                    2 # Oversubscription Multiplicative Penalty Factor for Adaptive DMA
-migrate_threshold                      8 # Access counter threshold for migrating the page from cpu to gpu
-sim_prof_enable                        1 # Enable gpgpu-sim profiler
-hardware_prefetch                      1 # Select gpgpu-sim hardware prefetcher
-hwprefetch_oversub                     1 # Select gpgpu-sim hardware prefetcher under over-subscription
-page_fault_latency                 66645 # Average fault latency (in core cycle).
-enable_accurate_simulation                    0 # Enable page fault functional simulation.
-enable_smart_runtime                    0 # Enable access pattern detection, policy engine, and adaptive memory management.
-enable_ptx_file_line_stats                    1 # Turn on PTX source line statistic profiling. (1 = On)
-ptx_line_stats_filename gpgpu_inst_stats.txt # Output file for PTX source line statistics.
-gpgpu_kernel_launch_latency               222150 # Kernel launch latency in cycles. Default: 0
-gpgpu_cdp_enabled                      0 # Turn on CDP
-save_embedded_ptx                      0 # saves ptx files embedded in binary as <n>.ptx
-keep                                   0 # keep intermediate files created by GPGPU-Sim when interfacing with external programs
-gpgpu_ptx_save_converted_ptxplus                    0 # Saved converted ptxplus to a file
-ptx_opcode_latency_int         4,13,4,5,145 # Opcode latencies for integers <ADD,MAX,MUL,MAD,DIV>Default 1,1,19,25,145
-ptx_opcode_latency_fp          4,13,4,5,39 # Opcode latencies for single precision floating points <ADD,MAX,MUL,MAD,DIV>Default 1,1,1,1,30
-ptx_opcode_latency_dp         8,19,8,8,330 # Opcode latencies for double precision floating points <ADD,MAX,MUL,MAD,DIV>Default 8,8,8,8,335
-ptx_opcode_initiation_int            1,2,2,2,8 # Opcode initiation intervals for integers <ADD,MAX,MUL,MAD,DIV>Default 1,1,4,4,32
-ptx_opcode_initiation_fp            1,2,1,1,4 # Opcode initiation intervals for single precision floating points <ADD,MAX,MUL,MAD,DIV>Default 1,1,1,1,5
-ptx_opcode_initiation_dp          1,2,1,1,130 # Opcode initiation intervals for double precision floating points <ADD,MAX,MUL,MAD,DIV>Default 8,8,8,8,130
-cdp_latency         7200,8000,100,12000,1600 # CDP API latency <cudaStreamCreateWithFlags, cudaGetParameterBufferV2_init_perWarp, cudaGetParameterBufferV2_perKernel, cudaLaunchDeviceV2_init_perWarp, cudaLaunchDevicV2_perKernel>Default 7200,8000,100,12000,1600
DRAM Timing Options:
nbk                                    16 # number of banks
CCD                                     2 # column to column delay
RRD                                     6 # minimal delay between activation of rows in different banks
RCD                                    12 # row to column delay
RAS                                    28 # time needed to activate row
RP                                     12 # time needed to precharge (deactivate) row
RC                                     40 # row cycle time
CDLR                                    5 # switching from write to read (changes tWTR)
WR                                     12 # last data-in to row precharge
CL                                     12 # CAS latency
WL                                      4 # Write latency
nbkgrp                                  1 # number of bank groups
CCDL                                    0 # column to column delay between accesses to different bank groups
RTPL                                    0 # read to precharge delay between accesses to different bank groups
Total number of memory sub partition = 8
addr_dec_mask[CHIP]  = 0000000000000300 	high:10 low:8
addr_dec_mask[BK]    = 000000000001c080 	high:17 low:7
addr_dec_mask[ROW]   = 000000003ffe0000 	high:30 low:17
addr_dec_mask[COL]   = 0000000000003c7f 	high:14 low:0
addr_dec_mask[BURST] = 000000000000001f 	high:5 low:0
sub_partition_id_mask = 0000000000000080
GPGPU-Sim uArch: clock freqs: 1481000000.000000:2962000000.000000:1481000000.000000:2750000000.000000
GPGPU-Sim uArch: clock periods: 0.00000000067521944632:0.00000000033760972316:0.00000000067521944632:0.00000000036363636364
*** Initializing Memory Statistics ***
GPGPU-Sim uArch: interconnect node map (shaderID+MemID to icntID)
GPGPU-Sim uArch: Memory nodes ID start from index: 28
GPGPU-Sim uArch:    0   1   2   3   4   5   6
GPGPU-Sim uArch:    7   8   9  10  11  12  13
GPGPU-Sim uArch:   14  15  16  17  18  19  20
GPGPU-Sim uArch:   21  22  23  24  25  26  27
GPGPU-Sim uArch:   28  29  30  31  32  33  34
GPGPU-Sim uArch:   35  36  37  38  39  40  41
GPGPU-Sim uArch:   42  43  44  45  46  47  48
GPGPU-Sim uArch:   49
GPGPU-Sim uArch: interconnect node reverse map (icntID to shaderID+MemID)
GPGPU-Sim uArch: Memory nodes start from ID: 28
GPGPU-Sim uArch:    0   1   2   3   4   5   6
GPGPU-Sim uArch:    7   8   9  10  11  12  13
GPGPU-Sim uArch:   14  15  16  17  18  19  20
GPGPU-Sim uArch:   21  22  23  24  25  26  27
GPGPU-Sim uArch:   28  29  30  31  32  33  34
GPGPU-Sim uArch:   35  36  37  38  39  40  41
GPGPU-Sim uArch:   42  43  44  45  46  47  48
GPGPU-Sim uArch:   49
4133c75692efeeaf4079ffc63efa2341  /root/uvmsmart/benchmarks/Managed/2DCONV/2dconv
GPGPU-Sim uArch: performance model initialization complete.
GPGPU-Sim PTX: __cudaRegisterFatBinary, fat_cubin_handle = 1, filename=default
self exe links to: /root/uvmsmart/benchmarks/Managed/2DCONV/2dconv
Running md5sum using "md5sum /root/uvmsmart/benchmarks/Managed/2DCONV/2dconv "
Parsing file _cuobjdump_complete_output_j0gOQx
######### cuobjdump parser ########
## Adding new section ELF
Adding arch: sm_20
Adding identifier: default
## Adding new section ELF
Adding arch: sm_20
Adding identifier: default
## Adding new section PTX
Adding ptx filename: _cuobjdump_1.ptx
Adding arch: sm_20
Adding identifier: default
Done parsing!!!
GPGPU-Sim PTX: __cudaRegisterFunction _Z20Convolution2D_kernelPfS_ : hostFun 0x0x400f21, fat_cubin_handle = 1
GPGPU-Sim PTX: instruction assembly for function '_Z20Convolution2D_kernelPfS_'...   done.
GPGPU-Sim PTX: finding reconvergence points for '_Z20Convolution2D_kernelPfS_'...
GPGPU-Sim PTX: Finding dominators for '_Z20Convolution2D_kernelPfS_'...
GPGPU-Sim PTX: Finding immediate dominators for '_Z20Convolution2D_kernelPfS_'...
GPGPU-Sim PTX: Finding postdominators for '_Z20Convolution2D_kernelPfS_'...
GPGPU-Sim PTX: Finding immediate postdominators for '_Z20Convolution2D_kernelPfS_'...
GPGPU-Sim PTX: pre-decoding instructions for '_Z20Convolution2D_kernelPfS_'...
GPGPU-Sim PTX: reconvergence points for _Z20Convolution2D_kernelPfS_...
GPGPU-Sim PTX:  1 (potential) branch divergence @  PC=0x088 (_1.ptx:42) @!%p7 bra BB0_2;
GPGPU-Sim PTX:    immediate post dominator      @  PC=0x180 (_1.ptx:77) ret;
GPGPU-Sim PTX:  2 (potential) branch divergence @  PC=0x090 (_1.ptx:43) bra.uni BB0_1;
GPGPU-Sim PTX:    immediate post dominator      @  PC=0x098 (_1.ptx:46) cvta.to.global.u64 %rd3, %rd1;
GPGPU-Sim PTX: ... end of reconvergence points for _Z20Convolution2D_kernelPfS_
GPGPU-Sim PTX: ... done pre-decoding instructions for '_Z20Convolution2D_kernelPfS_'.
GPGPU-Sim PTX: finished parsing EMBEDDED .ptx file _1.ptx
Adding _cuobjdump_1.ptx with cubin handle 1
GPGPU-Sim PTX: extracting embedded .ptx to temporary file "_ptx_foMpRU"
Running: cat _ptx_foMpRU | sed 's/.version 1.5/.version 1.4/' | sed 's/, texmode_independent//' | sed 's/\(\.extern \.const\[1\] .b8 \w\+\)\[\]/\1\[1\]/' | sed 's/const\[.\]/const\[0\]/g' > _ptx2_FcA2Rh
GPGPU-Sim PTX: generating ptxinfo using "$CUDA_INSTALL_PATH/bin/ptxas --gpu-name=sm_20 -v _ptx2_FcA2Rh --output-file  /dev/null 2> _ptx_foMpRUinfo"
GPGPU-Sim PTX: Kernel '_Z20Convolution2D_kernelPfS_' : regs=16, lmem=0, smem=0, cmem=80
GPGPU-Sim PTX: removing ptxinfo using "rm -f _ptx_foMpRU _ptx2_FcA2Rh _ptx_foMpRUinfo"
GPGPU-Sim PTX: loading globals with explicit initializers... 
GPGPU-Sim PTX: finished loading globals (0 bytes total).
GPGPU-Sim PTX: loading constants with explicit initializers...  done.

GPGPU-Sim PTX: cudaLaunch for 0x0x400f21 (mode=performance simulation) on stream 0
GPGPU-Sim PTX: pushing kernel '_Z20Convolution2D_kernelPfS_' to stream 0, gridDim= (32,128,1) blockDim = (32,8,1) 
GPGPU-Sim uArch: Shader 1 bind to kernel 1 '_Z20Convolution2D_kernelPfS_'
GPGPU-Sim uArch: CTA/core = 8, limited by: threads
GPGPU-Sim uArch: Shader 2 bind to kernel 1 '_Z20Convolution2D_kernelPfS_'
GPGPU-Sim uArch: Shader 3 bind to kernel 1 '_Z20Convolution2D_kernelPfS_'
GPGPU-Sim uArch: Shader 4 bind to kernel 1 '_Z20Convolution2D_kernelPfS_'
GPGPU-Sim uArch: Shader 5 bind to kernel 1 '_Z20Convolution2D_kernelPfS_'
GPGPU-Sim uArch: Shader 6 bind to kernel 1 '_Z20Convolution2D_kernelPfS_'
GPGPU-Sim uArch: Shader 7 bind to kernel 1 '_Z20Convolution2D_kernelPfS_'
GPGPU-Sim uArch: Shader 8 bind to kernel 1 '_Z20Convolution2D_kernelPfS_'
GPGPU-Sim uArch: Shader 9 bind to kernel 1 '_Z20Convolution2D_kernelPfS_'
GPGPU-Sim uArch: Shader 10 bind to kernel 1 '_Z20Convolution2D_kernelPfS_'
GPGPU-Sim uArch: Shader 11 bind to kernel 1 '_Z20Convolution2D_kernelPfS_'
GPGPU-Sim uArch: Shader 12 bind to kernel 1 '_Z20Convolution2D_kernelPfS_'
GPGPU-Sim uArch: Shader 13 bind to kernel 1 '_Z20Convolution2D_kernelPfS_'
GPGPU-Sim uArch: Shader 14 bind to kernel 1 '_Z20Convolution2D_kernelPfS_'
GPGPU-Sim uArch: Shader 15 bind to kernel 1 '_Z20Convolution2D_kernelPfS_'
GPGPU-Sim uArch: Shader 16 bind to kernel 1 '_Z20Convolution2D_kernelPfS_'
GPGPU-Sim uArch: Shader 17 bind to kernel 1 '_Z20Convolution2D_kernelPfS_'
GPGPU-Sim uArch: Shader 18 bind to kernel 1 '_Z20Convolution2D_kernelPfS_'
GPGPU-Sim uArch: Shader 19 bind to kernel 1 '_Z20Convolution2D_kernelPfS_'
GPGPU-Sim uArch: Shader 20 bind to kernel 1 '_Z20Convolution2D_kernelPfS_'
GPGPU-Sim uArch: Shader 21 bind to kernel 1 '_Z20Convolution2D_kernelPfS_'
GPGPU-Sim uArch: Shader 22 bind to kernel 1 '_Z20Convolution2D_kernelPfS_'
GPGPU-Sim uArch: Shader 23 bind to kernel 1 '_Z20Convolution2D_kernelPfS_'
GPGPU-Sim uArch: Shader 24 bind to kernel 1 '_Z20Convolution2D_kernelPfS_'
GPGPU-Sim uArch: Shader 25 bind to kernel 1 '_Z20Convolution2D_kernelPfS_'
GPGPU-Sim uArch: Shader 26 bind to kernel 1 '_Z20Convolution2D_kernelPfS_'
GPGPU-Sim uArch: Shader 27 bind to kernel 1 '_Z20Convolution2D_kernelPfS_'
GPGPU-Sim uArch: Shader 0 bind to kernel 1 '_Z20Convolution2D_kernelPfS_'
Fault address : 0xc0000
GHB MISS, adding to GHB at position 0
Fault address : 0xc0011
GHB MISS, adding to GHB at position 1
Fault address : 0xc0021
GHB MISS, adding to GHB at position 2
Fault address : 0xc0033
GHB MISS, adding to GHB at position 3
Fault address : 0xc0401
GHB MISS, adding to GHB at position 4
Fault address : 0xc0410
GHB MISS, adding to GHB at position 5
Fault address : 0xc0420
GHB MISS, adding to GHB at position 6
Fault address : 0xc0430
GHB MISS, adding to GHB at position 7
Fault address : 0xc0041
GHB MISS, adding to GHB at position 8
Fault address : 0xc0051
GHB MISS, adding to GHB at position 9
Fault address : 0xc0061
GHB MISS, adding to GHB at position a
Fault address : 0xc0440
GHB MISS, adding to GHB at position b
Fault address : 0xc0450
GHB MISS, adding to GHB at position c
Fault address : 0xc0460
GHB MISS, adding to GHB at position d
Fault address : 0xc0073
GHB MISS, adding to GHB at position e
Fault address : 0xc0081
GHB MISS, adding to GHB at position f
Fault address : 0xc0091
GHB MISS, adding to GHB at position 10
Fault address : 0xc0470
GHB MISS, adding to GHB at position 11
Fault address : 0xc0480
GHB MISS, adding to GHB at position 12
Fault address : 0xc0490
GHB MISS, adding to GHB at position 13
Fault address : 0xc00a1
GHB MISS, adding to GHB at position 14
Fault address : 0xc00b1
GHB MISS, adding to GHB at position 15
Fault address : 0xc00c1
GHB MISS, adding to GHB at position 16
Fault address : 0xc04a0
GHB MISS, adding to GHB at position 17
Fault address : 0xc04b0
GHB MISS, adding to GHB at position 18
Fault address : 0xc04c0
GHB MISS, adding to GHB at position 19
Fault address : 0xc00d1
GHB MISS, adding to GHB at position 1a
Fault address : 0xc00e1
GHB MISS, adding to GHB at position 1b
Fault address : 0xc00f1
GHB MISS, adding to GHB at position 1c
Fault address : 0xc04d0
GHB MISS, adding to GHB at position 1d
Fault address : 0xc04e0
GHB MISS, adding to GHB at position 1e
Fault address : 0xc04f0
GHB MISS, adding to GHB at position 1f
Fault address : 0xc0101
GHB MISS, adding to GHB at position 20
Fault address : 0xc0111
GHB MISS, adding to GHB at position 21
Fault address : 0xc0121
GHB MISS, adding to GHB at position 22
Fault address : 0xc0500
GHB MISS, adding to GHB at position 23
Fault address : 0xc0510
GHB MISS, adding to GHB at position 24
Fault address : 0xc0520
GHB MISS, adding to GHB at position 25
Fault address : 0xc0133
GHB MISS, adding to GHB at position 26
Fault address : 0xc0141
GHB MISS, adding to GHB at position 27
Fault address : 0xc0151
GHB MISS, adding to GHB at position 28
Fault address : 0xc0530
GHB MISS, adding to GHB at position 29
Fault address : 0xc0540
GHB MISS, adding to GHB at position 2a
Fault address : 0xc0550
GHB MISS, adding to GHB at position 2b
Fault address : 0xc0161
GHB MISS, adding to GHB at position 2c
Fault address : 0xc0171
GHB MISS, adding to GHB at position 2d
Fault address : 0xc0181
GHB MISS, adding to GHB at position 2e
Fault address : 0xc0560
GHB MISS, adding to GHB at position 2f
Fault address : 0xc0570
GHB MISS, adding to GHB at position 30
Fault address : 0xc0580
GHB MISS, adding to GHB at position 31
Fault address : 0xc0191
GHB MISS, adding to GHB at position 32
Fault address : 0xc01a1
GHB MISS, adding to GHB at position 33
Fault address : 0xc01b1
GHB MISS, adding to GHB at position 34
Fault address : 0xc0590
GHB MISS, adding to GHB at position 35
Fault address : 0xc05a0
GHB MISS, adding to GHB at position 36
Fault address : 0xc05b0
GHB MISS, adding to GHB at position 37
Fault address : 0xc01c1
GHB MISS, adding to GHB at position 38
Fault address : 0xc01d1
GHB MISS, adding to GHB at position 39
Fault address : 0xc01e1
GHB MISS, adding to GHB at position 3a
Fault address : 0xc05c0
GHB MISS, adding to GHB at position 3b
Fault address : 0xc05d0
GHB MISS, adding to GHB at position 3c
Fault address : 0xc05e0
GHB MISS, adding to GHB at position 3d
Fault address : 0xc01f3
GHB MISS, adding to GHB at position 3e
Fault address : 0xc0201
GHB MISS, adding to GHB at position 3f
Fault address : 0xc0211
GHB MISS, adding to GHB at position 40
Fault address : 0xc05f0
GHB MISS, adding to GHB at position 41
Fault address : 0xc0600
GHB MISS, adding to GHB at position 42
Fault address : 0xc0610
GHB MISS, adding to GHB at position 43
Fault address : 0xc0221
GHB MISS, adding to GHB at position 44
Fault address : 0xc0231
GHB MISS, adding to GHB at position 45
Fault address : 0xc0241
GHB MISS, adding to GHB at position 46
Fault address : 0xc0620
GHB MISS, adding to GHB at position 47
Fault address : 0xc0630
GHB MISS, adding to GHB at position 48
Fault address : 0xc0640
GHB MISS, adding to GHB at position 49
Fault address : 0xc0251
GHB MISS, adding to GHB at position 4a
Fault address : 0xc0261
GHB MISS, adding to GHB at position 4b
Fault address : 0xc0271
GHB MISS, adding to GHB at position 4c
Fault address : 0xc0650
GHB MISS, adding to GHB at position 4d
Fault address : 0xc0660
GHB MISS, adding to GHB at position 4e
Fault address : 0xc0670
GHB MISS, adding to GHB at position 4f
Fault address : 0xc0281
GHB MISS, adding to GHB at position 50
Fault address : 0xc0291
GHB MISS, adding to GHB at position 51
Fault address : 0xc02a1
GHB MISS, adding to GHB at position 52
Fault address : 0xc0680
GHB MISS, adding to GHB at position 53
Fault address : 0xc0690
GHB MISS, adding to GHB at position 54
Fault address : 0xc06a0
GHB MISS, adding to GHB at position 55
Fault address : 0xc02b3
GHB MISS, adding to GHB at position 56
Fault address : 0xc02c1
GHB MISS, adding to GHB at position 57
Fault address : 0xc02d1
GHB MISS, adding to GHB at position 58
Fault address : 0xc06b0
GHB MISS, adding to GHB at position 59
Fault address : 0xc06c0
GHB MISS, adding to GHB at position 5a
Fault address : 0xc06d0
GHB MISS, adding to GHB at position 5b
Fault address : 0xc02e1
GHB MISS, adding to GHB at position 5c
Fault address : 0xc02f1
GHB MISS, adding to GHB at position 5d
Fault address : 0xc0301
GHB MISS, adding to GHB at position 5e
Fault address : 0xc06e0
GHB MISS, adding to GHB at position 5f
Fault address : 0xc06f0
GHB MISS, adding to GHB at position 60
Fault address : 0xc0700
GHB MISS, adding to GHB at position 61
Fault address : 0xc0311
GHB MISS, adding to GHB at position 62
Fault address : 0xc0321
GHB MISS, adding to GHB at position 63
Fault address : 0xc0331
GHB MISS, adding to GHB at position 64
Fault address : 0xc0710
GHB MISS, adding to GHB at position 65
Fault address : 0xc0720
GHB MISS, adding to GHB at position 66
Fault address : 0xc0730
GHB MISS, adding to GHB at position 67
Fault address : 0xc0341
GHB MISS, adding to GHB at position 68
Fault address : 0xc0351
GHB MISS, adding to GHB at position 69
Fault address : 0xc0361
GHB MISS, adding to GHB at position 6a
Fault address : 0xc0740
GHB MISS, adding to GHB at position 6b
Fault address : 0xc0750
GHB MISS, adding to GHB at position 6c
Fault address : 0xc0760
GHB MISS, adding to GHB at position 6d
Fault address : 0xc0371
GHB MISS, adding to GHB at position 6e
Fault address : 0xc0381
GHB MISS, adding to GHB at position 6f
Fault address : 0xc0391
GHB MISS, adding to GHB at position 70
Fault address : 0xc0770
GHB MISS, adding to GHB at position 71
Fault address : 0xc0780
GHB MISS, adding to GHB at position 72
Fault address : 0xc0790
GHB MISS, adding to GHB at position 73
Fault address : 0xc03a1
GHB MISS, adding to GHB at position 74
Fault address : 0xc03b1
GHB MISS, adding to GHB at position 75
Fault address : 0xc03c1
GHB MISS, adding to GHB at position 76
Fault address : 0xc07a0
GHB MISS, adding to GHB at position 77
Fault address : 0xc07b0
GHB MISS, adding to GHB at position 78
Fault address : 0xc07c0
GHB MISS, adding to GHB at position 79
Fault address : 0xc03d1
GHB MISS, adding to GHB at position 7a
Fault address : 0xc03e1
GHB MISS, adding to GHB at position 7b
Fault address : 0xc03f1
GHB MISS, adding to GHB at position 7c
Fault address : 0xc07d0
GHB MISS, adding to GHB at position 7d
Fault address : 0xc07e0
GHB MISS, adding to GHB at position 7e
Fault address : 0xc07f0
GHB MISS, adding to GHB at position 7f
Destroy streams for kernel 1: size 0
kernel_name = _Z20Convolution2D_kernelPfS_ 
kernel_launch_uid = 1 
gpu_sim_cycle = 1388264
gpu_sim_insn = 50212980
gpu_ipc =      36.1696
gpu_tot_sim_cycle = 1610414
gpu_tot_sim_insn = 50212980
gpu_tot_ipc =      31.1802
gpu_tot_issued_cta = 4096
max_total_param_size = 0
gpu_stall_dramfull = 817092
gpu_stall_icnt2sh    = 711959
partiton_reqs_in_parallel = 10289020
partiton_reqs_in_parallel_total    = 0
partiton_level_parallism =       7.4114
partiton_level_parallism_total  =       6.3891
partiton_reqs_in_parallel_util = 10289020
partiton_reqs_in_parallel_util_total    = 0
gpu_sim_cycle_parition_util = 1371511
gpu_tot_sim_cycle_parition_util    = 0
partiton_level_parallism_util =       7.5020
partiton_level_parallism_util_total  =       7.5020
partiton_replys_in_parallel = 517272
partiton_replys_in_parallel_total    = 0
L2_BW  =      35.3168 GB/Sec
L2_BW_total  =      30.4450 GB/Sec
gpu_total_sim_rate=3890

========= Core cache stats =========
L1I_cache:
	L1I_total_cache_accesses = 818304
	L1I_total_cache_misses = 2406
	L1I_total_cache_miss_rate = 0.0029
	L1I_total_cache_pending_hits = 0
	L1I_total_cache_reservation_fails = 6851
L1D_cache:
	L1D_cache_core[0]: Access = 0, Miss = 0, Miss_rate = -nan, Pending_hits = 0, Reservation_fails = 0
	L1D_cache_core[1]: Access = 0, Miss = 0, Miss_rate = -nan, Pending_hits = 0, Reservation_fails = 0
	L1D_cache_core[2]: Access = 0, Miss = 0, Miss_rate = -nan, Pending_hits = 0, Reservation_fails = 0
	L1D_cache_core[3]: Access = 0, Miss = 0, Miss_rate = -nan, Pending_hits = 0, Reservation_fails = 0
	L1D_cache_core[4]: Access = 0, Miss = 0, Miss_rate = -nan, Pending_hits = 0, Reservation_fails = 0
	L1D_cache_core[5]: Access = 0, Miss = 0, Miss_rate = -nan, Pending_hits = 0, Reservation_fails = 0
	L1D_cache_core[6]: Access = 0, Miss = 0, Miss_rate = -nan, Pending_hits = 0, Reservation_fails = 0
	L1D_cache_core[7]: Access = 0, Miss = 0, Miss_rate = -nan, Pending_hits = 0, Reservation_fails = 0
	L1D_cache_core[8]: Access = 0, Miss = 0, Miss_rate = -nan, Pending_hits = 0, Reservation_fails = 0
	L1D_cache_core[9]: Access = 0, Miss = 0, Miss_rate = -nan, Pending_hits = 0, Reservation_fails = 0
	L1D_cache_core[10]: Access = 0, Miss = 0, Miss_rate = -nan, Pending_hits = 0, Reservation_fails = 0
	L1D_cache_core[11]: Access = 0, Miss = 0, Miss_rate = -nan, Pending_hits = 0, Reservation_fails = 0
	L1D_cache_core[12]: Access = 0, Miss = 0, Miss_rate = -nan, Pending_hits = 0, Reservation_fails = 0
	L1D_cache_core[13]: Access = 0, Miss = 0, Miss_rate = -nan, Pending_hits = 0, Reservation_fails = 0
	L1D_cache_core[14]: Access = 0, Miss = 0, Miss_rate = -nan, Pending_hits = 0, Reservation_fails = 0
	L1D_cache_core[15]: Access = 0, Miss = 0, Miss_rate = -nan, Pending_hits = 0, Reservation_fails = 0
	L1D_cache_core[16]: Access = 0, Miss = 0, Miss_rate = -nan, Pending_hits = 0, Reservation_fails = 0
	L1D_cache_core[17]: Access = 0, Miss = 0, Miss_rate = -nan, Pending_hits = 0, Reservation_fails = 0
	L1D_cache_core[18]: Access = 0, Miss = 0, Miss_rate = -nan, Pending_hits = 0, Reservation_fails = 0
	L1D_cache_core[19]: Access = 0, Miss = 0, Miss_rate = -nan, Pending_hits = 0, Reservation_fails = 0
	L1D_cache_core[20]: Access = 0, Miss = 0, Miss_rate = -nan, Pending_hits = 0, Reservation_fails = 0
	L1D_cache_core[21]: Access = 0, Miss = 0, Miss_rate = -nan, Pending_hits = 0, Reservation_fails = 0
	L1D_cache_core[22]: Access = 0, Miss = 0, Miss_rate = -nan, Pending_hits = 0, Reservation_fails = 0
	L1D_cache_core[23]: Access = 0, Miss = 0, Miss_rate = -nan, Pending_hits = 0, Reservation_fails = 0
	L1D_cache_core[24]: Access = 0, Miss = 0, Miss_rate = -nan, Pending_hits = 0, Reservation_fails = 0
	L1D_cache_core[25]: Access = 0, Miss = 0, Miss_rate = -nan, Pending_hits = 0, Reservation_fails = 0
	L1D_cache_core[26]: Access = 0, Miss = 0, Miss_rate = -nan, Pending_hits = 0, Reservation_fails = 0
	L1D_cache_core[27]: Access = 0, Miss = 0, Miss_rate = -nan, Pending_hits = 0, Reservation_fails = 0
	L1D_total_cache_accesses = 0
	L1D_total_cache_misses = 0
	L1D_total_cache_pending_hits = 0
	L1D_total_cache_reservation_fails = 0
	L1D_cache_data_port_util = 0.000
	L1D_cache_fill_port_util = 0.000
L1C_cache:
	L1C_total_cache_accesses = 65536
	L1C_total_cache_misses = 1792
	L1C_total_cache_miss_rate = 0.0273
	L1C_total_cache_pending_hits = 0
	L1C_total_cache_reservation_fails = 5054
L1T_cache:
	L1T_total_cache_accesses = 0
	L1T_total_cache_misses = 0
	L1T_total_cache_pending_hits = 0
	L1T_total_cache_reservation_fails = 0

Total_core_cache_stats:
	Total_core_cache_stats_breakdown[GLOBAL_ACC_R][HIT] = 0
	Total_core_cache_stats_breakdown[GLOBAL_ACC_R][HIT_RESERVED] = 0
	Total_core_cache_stats_breakdown[GLOBAL_ACC_R][MISS] = 0
	Total_core_cache_stats_breakdown[GLOBAL_ACC_R][RESERVATION_FAIL] = 0
	Total_core_cache_stats_breakdown[LOCAL_ACC_R][HIT] = 0
	Total_core_cache_stats_breakdown[LOCAL_ACC_R][HIT_RESERVED] = 0
	Total_core_cache_stats_breakdown[LOCAL_ACC_R][MISS] = 0
	Total_core_cache_stats_breakdown[LOCAL_ACC_R][RESERVATION_FAIL] = 0
	Total_core_cache_stats_breakdown[CONST_ACC_R][HIT] = 63744
	Total_core_cache_stats_breakdown[CONST_ACC_R][HIT_RESERVED] = 0
	Total_core_cache_stats_breakdown[CONST_ACC_R][MISS] = 1792
	Total_core_cache_stats_breakdown[CONST_ACC_R][RESERVATION_FAIL] = 5054
	Total_core_cache_stats_breakdown[TEXTURE_ACC_R][HIT] = 0
	Total_core_cache_stats_breakdown[TEXTURE_ACC_R][HIT_RESERVED] = 0
	Total_core_cache_stats_breakdown[TEXTURE_ACC_R][MISS] = 0
	Total_core_cache_stats_breakdown[TEXTURE_ACC_R][RESERVATION_FAIL] = 0
	Total_core_cache_stats_breakdown[GLOBAL_ACC_W][HIT] = 0
	Total_core_cache_stats_breakdown[GLOBAL_ACC_W][HIT_RESERVED] = 0
	Total_core_cache_stats_breakdown[GLOBAL_ACC_W][MISS] = 0
	Total_core_cache_stats_breakdown[GLOBAL_ACC_W][RESERVATION_FAIL] = 0
	Total_core_cache_stats_breakdown[LOCAL_ACC_W][HIT] = 0
	Total_core_cache_stats_breakdown[LOCAL_ACC_W][HIT_RESERVED] = 0
	Total_core_cache_stats_breakdown[LOCAL_ACC_W][MISS] = 0
	Total_core_cache_stats_breakdown[LOCAL_ACC_W][RESERVATION_FAIL] = 0
	Total_core_cache_stats_breakdown[L1_WRBK_ACC][HIT] = 0
	Total_core_cache_stats_breakdown[L1_WRBK_ACC][HIT_RESERVED] = 0
	Total_core_cache_stats_breakdown[L1_WRBK_ACC][MISS] = 0
	Total_core_cache_stats_breakdown[L1_WRBK_ACC][RESERVATION_FAIL] = 0
	Total_core_cache_stats_breakdown[L2_WRBK_ACC][HIT] = 0
	Total_core_cache_stats_breakdown[L2_WRBK_ACC][HIT_RESERVED] = 0
	Total_core_cache_stats_breakdown[L2_WRBK_ACC][MISS] = 0
	Total_core_cache_stats_breakdown[L2_WRBK_ACC][RESERVATION_FAIL] = 0
	Total_core_cache_stats_breakdown[INST_ACC_R][HIT] = 815898
	Total_core_cache_stats_breakdown[INST_ACC_R][HIT_RESERVED] = 0
	Total_core_cache_stats_breakdown[INST_ACC_R][MISS] = 2406
	Total_core_cache_stats_breakdown[INST_ACC_R][RESERVATION_FAIL] = 6851
	Total_core_cache_stats_breakdown[L1_WR_ALLOC_R][HIT] = 0
	Total_core_cache_stats_breakdown[L1_WR_ALLOC_R][HIT_RESERVED] = 0
	Total_core_cache_stats_breakdown[L1_WR_ALLOC_R][MISS] = 0
	Total_core_cache_stats_breakdown[L1_WR_ALLOC_R][RESERVATION_FAIL] = 0
	Total_core_cache_stats_breakdown[L2_WR_ALLOC_R][HIT] = 0
	Total_core_cache_stats_breakdown[L2_WR_ALLOC_R][HIT_RESERVED] = 0
	Total_core_cache_stats_breakdown[L2_WR_ALLOC_R][MISS] = 0
	Total_core_cache_stats_breakdown[L2_WR_ALLOC_R][RESERVATION_FAIL] = 0
	Total_core_cache_stats_breakdown[CONST_ACC_R][TOTAL_ACCESS] = 65536
	Total_core_cache_stats_breakdown[INST_ACC_R][TOTAL_ACCESS] = 818304
Shader 0 warp_id issue ditsribution:
warp_id:
0, 1, 2, 3, 4, 5, 6, 7, 8, 9, 10, 11, 12, 13, 14, 15, 16, 17, 18, 19, 20, 21, 22, 23, 24, 25, 26, 27, 28, 29, 30, 31, 32, 33, 34, 35, 36, 37, 38, 39, 40, 41, 42, 43, 44, 45, 46, 47, 48, 49, 50, 51, 52, 53, 54, 55, 56, 57, 58, 59, 60, 61, 62, 63, 
distro:
1200, 1232, 1232, 1232, 1232, 1232, 1232, 1200, 1176, 1176, 1176, 1176, 1176, 1176, 1176, 1176, 1176, 1176, 1176, 1176, 1176, 1176, 1176, 1176, 1176, 1176, 1176, 1176, 1176, 1176, 1176, 1176, 1176, 1176, 1176, 1176, 1176, 1176, 1176, 1176, 1008, 1008, 1008, 1008, 1008, 1008, 1008, 1008, 616, 616, 616, 616, 616, 616, 616, 616, 616, 616, 616, 616, 616, 616, 616, 616, 
gpgpu_n_tot_thrd_icount = 51318784
gpgpu_n_tot_w_icount = 1603712
gpgpu_n_stall_shd_mem = 889937
gpgpu_n_mem_read_local = 0
gpgpu_n_mem_write_local = 0
gpgpu_n_mem_read_global = 484428
gpgpu_n_mem_write_global = 32704
gpgpu_n_mem_texture = 0
gpgpu_n_mem_const = 28
gpgpu_n_load_insn  = 9400356
gpgpu_n_store_insn = 1044484
gpgpu_n_shmem_insn = 0
gpgpu_n_tex_insn = 0
gpgpu_n_const_mem_insn = 0
gpgpu_n_param_mem_insn = 2097152
gpgpu_n_shmem_bkconflict = 0
gpgpu_n_cache_bkconflict = 0
gpgpu_n_intrawarp_mshr_merge = 0
gpgpu_n_cmem_portconflict = 5054
gpgpu_stall_shd_mem[c_mem][bk_conf] = 5054
gpgpu_stall_shd_mem[c_mem][mshr_rc] = 0
gpgpu_stall_shd_mem[c_mem][icnt_rc] = 0
gpgpu_stall_shd_mem[c_mem][data_port_stall] = 0
gpgpu_stall_shd_mem[t_mem][mshr_rc] = 0
gpgpu_stall_shd_mem[t_mem][icnt_rc] = 0
gpgpu_stall_shd_mem[t_mem][data_port_stall] = 0
gpgpu_stall_shd_mem[s_mem][bk_conf] = 0
gpgpu_stall_shd_mem[gl_mem][bk_conf] = 0
gpgpu_stall_shd_mem[gl_mem][coal_stall] = 605105
gpgpu_stall_shd_mem[gl_mem][data_port_stall] = 0
gpgpu_stall_shd_mem[g_mem_ld][mshr_rc] = 0
gpgpu_stall_shd_mem[g_mem_ld][icnt_rc] = 279778
gpgpu_stall_shd_mem[g_mem_ld][wb_icnt_rc] = 0
gpgpu_stall_shd_mem[g_mem_ld][wb_rsrv_fail] = 0
gpgpu_stall_shd_mem[g_mem_st][mshr_rc] = 0
gpgpu_stall_shd_mem[g_mem_st][icnt_rc] = 0
gpgpu_stall_shd_mem[g_mem_st][wb_icnt_rc] = 0
gpgpu_stall_shd_mem[g_mem_st][wb_rsrv_fail] = 0
gpgpu_stall_shd_mem[l_mem_ld][mshr_rc] = 0
gpgpu_stall_shd_mem[l_mem_ld][icnt_rc] = 0
gpgpu_stall_shd_mem[l_mem_ld][wb_icnt_rc] = 0
gpgpu_stall_shd_mem[l_mem_ld][wb_rsrv_fail] = 0
gpgpu_stall_shd_mem[l_mem_st][mshr_rc] = 0
gpgpu_stall_shd_mem[l_mem_st][icnt_rc] = 0
gpgpu_stall_shd_mem[l_mem_ld][wb_icnt_rc] = 0
gpgpu_stall_shd_mem[l_mem_ld][wb_rsrv_fail] = 0
gpu_reg_bank_conflict_stalls = 0
Warp Occupancy Distribution:
Stall:70436	W0_Idle:37066729	W0_Scoreboard:39222979	W1:0	W2:0	W3:0	W4:0	W5:0	W6:0	W7:0	W8:0	W9:0	W10:0	W11:0	W12:0	W13:0	W14:0	W15:0	W16:0	W17:0	W18:0	W19:0	W20:0	W21:0	W22:0	W23:0	W24:0	W25:0	W26:0	W27:0	W28:0	W29:0	W30:0	W31:61320	W32:1542392
traffic_breakdown_coretomem[CONST_ACC_R] = 224 {8:28,}
traffic_breakdown_coretomem[GLOBAL_ACC_R] = 3875424 {8:484428,}
traffic_breakdown_coretomem[GLOBAL_ACC_W] = 4447744 {136:32704,}
traffic_breakdown_coretomem[INST_ACC_R] = 896 {8:112,}
traffic_breakdown_memtocore[CONST_ACC_R] = 2016 {72:28,}
traffic_breakdown_memtocore[GLOBAL_ACC_R] = 47633376 {40:190092,136:294336,}
traffic_breakdown_memtocore[GLOBAL_ACC_W] = 261632 {8:32704,}
traffic_breakdown_memtocore[INST_ACC_R] = 15232 {136:112,}
maxmrqlatency = 769 
maxdqlatency = 0 
maxmflatency = 49186 
averagemflatency = 4792 
max_icnt2mem_latency = 48656 
max_icnt2sh_latency = 1610413 
mrq_lat_table:10316 	1691 	1994 	3444 	5925 	11014 	13597 	20238 	25117 	4845 	0 	0 	0 	0 	0 	0 	0 	0 	0 	0 	0 	0 	0 	0 	0 	0 	0 	0 	0 	0 	0 	0 	
dq_lat_table:0 	0 	0 	0 	0 	0 	0 	0 	0 	0 	0 	0 	0 	0 	0 	0 	0 	0 	0 	0 	0 	0 	0 	0 	0 	0 	0 	0 	0 	0 	0 	0 	
mf_lat_table:0 	0 	0 	0 	0 	0 	0 	163005 	215099 	18625 	2884 	7516 	8001 	31255 	68112 	2663 	0 	0 	0 	0 	0 	0 	0 	0 	0 	0 	0 	0 	0 	0 	0 	0 	
icnt2mem_lat_table:0 	0 	100814 	7137 	18638 	39898 	92919 	95999 	39923 	1972 	4685 	5256 	8001 	31255 	68126 	2649 	0 	0 	0 	0 	0 	0 	0 	0 	
icnt2sh_lat_table:0 	0 	230589 	233446 	20337 	84 	0 	0 	0 	0 	0 	0 	0 	0 	0 	0 	0 	0 	6624 	12288 	13792 	0 	0 	0 	
mf_lat_pw_table:0 	0 	0 	0 	0 	0 	0 	223 	194 	30 	38 	37 	34 	56 	288 	20 	0 	0 	0 	0 	0 	0 	0 	0 	0 	0 	0 	0 	0 	0 	0 	0 	
maximum concurrent accesses to same row:
dram[0]:        32        32        32        32        32        32        32        32        32        32        32        32        32        32        32        32 
dram[1]:        32        32        32        32        32        32        32        32        32        32        32        32        32        32        32        32 
dram[2]:        32        32        32        32        32        32        32        32        32        32        32        32        32        32        32        32 
dram[3]:        32        32        32        32        32        32        32        32        32        32        32        32        32        32        32        32 
maximum service time to same row:
dram[0]:     31813     31767     33433     33432     33476     33478     33508     33507     36830     36829     43694     43695     44994     45012     65647     65599 
dram[1]:     31778     31792     33434     33436     33474     33478     33509     33516     36857     36829     43695     43694     45013     45011     65573     65675 
dram[2]:     31751     31779     33432     33430     33471     33472     33516     33518     36830     36829     43694     43695     45012     45014     65678     65679 
dram[3]:     31812     31771     33431     33429     33474     33474     33513     33512     36855     36829     43695     43694     45004     44993     65696     65696 
average row accesses per activate:
dram[0]: 23.538462 23.523077 24.380953 24.380953 21.041096 21.041096 24.380953 24.380953 24.380953 24.380953 24.380953 24.380953 20.756756 20.756756 24.253969 24.253969 
dram[1]: 23.523077 23.523077 24.380953 24.380953 21.041096 21.041096 24.380953 24.380953 24.380953 24.380953 24.380953 24.380953 20.756756 20.756756 24.253969 24.253969 
dram[2]: 24.253969 24.253969 24.380953 24.380953 21.041096 21.041096 24.380953 24.380953 24.380953 24.380953 24.380953 24.380953 20.756756 20.756756 24.253969 24.253969 
dram[3]: 24.253969 24.253969 24.380953 24.380953 21.041096 21.041096 24.380953 24.380953 24.380953 24.380953 24.380953 24.380953 20.756756 20.756756 24.253969 24.253969 
average row locality = 98181/4208 = 23.331987
number of total memory accesses made:
dram[0]:         0         0         0         0         0         0         0         0         0         0         0         0         0         0         0         0 
dram[1]:         0         0         0         0         0         0         0         0         0         0         0         0         0         0         0         0 
dram[2]:         0         0         0         0         0         0         0         0         0         0         0         0         0         0         0         0 
dram[3]:         0         0         0         0         0         0         0         0         0         0         0         0         0         0         0         0 
total accesses: 0
min_bank_accesses = 0!
min_chip_accesses = 0!
number of total read accesses:
dram[0]:      1022      1021      1024      1024      1024      1024      1024      1024      1024      1024      1024      1024      1024      1024      1020      1020 
dram[1]:      1021      1021      1024      1024      1024      1024      1024      1024      1024      1024      1024      1024      1024      1024      1020      1020 
dram[2]:      1020      1020      1024      1024      1024      1024      1024      1024      1024      1024      1024      1024      1024      1024      1020      1020 
dram[3]:      1020      1020      1024      1024      1024      1024      1024      1024      1024      1024      1024      1024      1024      1024      1020      1020 
total reads: 65477
bank skew: 1024/1020 = 1.00
chip skew: 16371/16368 = 1.00
number of total write accesses:
dram[0]:       508       508       512       512       512       512       512       512       512       512       512       512       512       512       508       508 
dram[1]:       508       508       512       512       512       512       512       512       512       512       512       512       512       512       508       508 
dram[2]:       508       508       512       512       512       512       512       512       512       512       512       512       512       512       508       508 
dram[3]:       508       508       512       512       512       512       512       512       512       512       512       512       512       512       508       508 
total reads: 32704
bank skew: 512/508 = 1.01
chip skew: 8176/8176 = 1.00
average mf latency per bank:
dram[0]:      31682     31786     30382     30531     19938     20076     20042     20176     31642     31724     30982     31131     18819     18943     19016     19139
dram[1]:      31772     31794     30469     30538     20045     20052     20120     20152     31694     31734     31072     31140     18923     18947     19088     19128
dram[2]:      31793     31829     30473     30549     20027     20063     20156     20200     31714     31738     31052     31144     18896     18946     19119     19169
dram[3]:      31807     29960     30508     28901     20052     19023     20175     19133     31727     29913     31102     29446     18908     17966     19121     18154
maximum mf latency per bank:
dram[0]:      41739     41781     40605     40305     40767     40404     40644     40491     49083     49077     42617     42684     40489     40325     40422     40321
dram[1]:      41764     41766     40616     40473     40435     40575     40450     40663     49067     49186     42638     42677     40251     40270     40390     40392
dram[2]:      41681     41688     40416     40473     40564     40781     40613     40864     49048     49025     42637     42694     40526     40344     40451     40365
dram[3]:      41512     41896     40430     40469     40965     40546     40886     40692     49026     49060     42631     42722     40437     40381     40483     40479
Memory Partition 0: 
Cache L2_bank_000:
MSHR contents

Cache L2_bank_001:
MSHR contents
MSHR: tag=0xc07fe080, atomic=0 1 entries : 0x7f1953424c10 :  mf: uid=1445581, sid06:w06, part=0, addr=0xc07fe080, load , size=128, unknown  status = IN_PARTITION_DRAM (1610413), 

In Dram Latency Queue (total = 0): 
DRAM[0]: 16 bks, busW=4 BL=8 CL=12, tRRD=2 tCCD=6, tRCD=12 tRAS=28 tRP=12 tRC=40
n_cmd=2577801 n_nop=2477494 n_act=1068 n_pre=1052 n_req=24547 n_rd=65483 n_write=32704 bw_util=0.07618
n_activity=250461 dram_eff=0.7841
bk0: 4088a 2532196i bk1: 4084a 2529016i bk2: 4096a 2520515i bk3: 4096a 2515991i bk4: 4096a 2516927i bk5: 4096a 2513372i bk6: 4096a 2520187i bk7: 4096a 2516436i bk8: 4096a 2531992i bk9: 4096a 2528839i bk10: 4096a 2521344i bk11: 4096a 2516841i bk12: 4096a 2518199i bk13: 4096a 2514733i bk14: 4080a 2521221i bk15: 4079a 2518008i 
dram_util_bins: 0 0 0 0 0 0 0 0 0 0
dram_eff_bins: 0 0 0 0 0 0 0 0 0 0
mrqq: max=64 avg=3.12451
Memory Partition 1: 
Cache L2_bank_002:
MSHR contents

Cache L2_bank_003:
MSHR contents

In Dram Latency Queue (total = 0): 
DRAM[1]: 16 bks, busW=4 BL=8 CL=12, tRRD=2 tCCD=6, tRCD=12 tRAS=28 tRP=12 tRC=40
n_cmd=2577801 n_nop=2477495 n_act=1069 n_pre=1053 n_req=24546 n_rd=65480 n_write=32704 bw_util=0.07618
n_activity=250224 dram_eff=0.7848
bk0: 4084a 2532363i bk1: 4084a 2529230i bk2: 4096a 2520786i bk3: 4096a 2516330i bk4: 4096a 2516629i bk5: 4096a 2514023i bk6: 4096a 2519713i bk7: 4096a 2516479i bk8: 4096a 2531380i bk9: 4096a 2528230i bk10: 4096a 2521063i bk11: 4096a 2516800i bk12: 4096a 2518068i bk13: 4096a 2515140i bk14: 4080a 2520225i bk15: 4080a 2518028i 
dram_util_bins: 0 0 0 0 0 0 0 0 0 0
dram_eff_bins: 0 0 0 0 0 0 0 0 0 0
mrqq: max=64 avg=3.1377
Memory Partition 2: 
Cache L2_bank_004:
MSHR contents

Cache L2_bank_005:
MSHR contents

In Dram Latency Queue (total = 0): 
DRAM[2]: 16 bks, busW=4 BL=8 CL=12, tRRD=2 tCCD=6, tRCD=12 tRAS=28 tRP=12 tRC=40
n_cmd=2577801 n_nop=2477509 n_act=1066 n_pre=1050 n_req=24544 n_rd=65472 n_write=32704 bw_util=0.07617
n_activity=251575 dram_eff=0.7805
bk0: 4080a 2533214i bk1: 4080a 2529935i bk2: 4096a 2521410i bk3: 4096a 2516865i bk4: 4096a 2517289i bk5: 4096a 2513403i bk6: 4096a 2521868i bk7: 4096a 2518556i bk8: 4096a 2532515i bk9: 4096a 2529329i bk10: 4096a 2521901i bk11: 4096a 2517609i bk12: 4096a 2518593i bk13: 4096a 2514568i bk14: 4080a 2522355i bk15: 4080a 2519133i 
dram_util_bins: 0 0 0 0 0 0 0 0 0 0
dram_eff_bins: 0 0 0 0 0 0 0 0 0 0
mrqq: max=64 avg=3.21934
Memory Partition 3: 
Cache L2_bank_006:
MSHR contents

Cache L2_bank_007:
MSHR contents

In Dram Latency Queue (total = 0): 
DRAM[3]: 16 bks, busW=4 BL=8 CL=12, tRRD=2 tCCD=6, tRCD=12 tRAS=28 tRP=12 tRC=40
n_cmd=2577801 n_nop=2477509 n_act=1066 n_pre=1050 n_req=24544 n_rd=65472 n_write=32704 bw_util=0.07617
n_activity=252390 dram_eff=0.778
bk0: 4080a 2532951i bk1: 4080a 2530052i bk2: 4096a 2521110i bk3: 4096a 2516611i bk4: 4096a 2516968i bk5: 4096a 2513444i bk6: 4096a 2520768i bk7: 4096a 2518327i bk8: 4096a 2532264i bk9: 4096a 2529485i bk10: 4096a 2521294i bk11: 4096a 2517174i bk12: 4096a 2517894i bk13: 4096a 2514333i bk14: 4080a 2521708i bk15: 4080a 2519255i 
dram_util_bins: 0 0 0 0 0 0 0 0 0 0
dram_eff_bins: 0 0 0 0 0 0 0 0 0 0
mrqq: max=64 avg=3.28072

========= L2 cache stats =========
L2_cache_bank[0]: Access = 62398, Miss = 8186, Miss_rate = 0.131, Pending_hits = 9575, Reservation_fails = 24
L2_cache_bank[1]: Access = 65436, Miss = 8185, Miss_rate = 0.125, Pending_hits = 9806, Reservation_fails = 1
L2_cache_bank[2]: Access = 65436, Miss = 8185, Miss_rate = 0.125, Pending_hits = 9585, Reservation_fails = 11
L2_cache_bank[3]: Access = 65436, Miss = 8185, Miss_rate = 0.125, Pending_hits = 9533, Reservation_fails = 12
L2_cache_bank[4]: Access = 65408, Miss = 8184, Miss_rate = 0.125, Pending_hits = 9418, Reservation_fails = 28
L2_cache_bank[5]: Access = 65408, Miss = 8184, Miss_rate = 0.125, Pending_hits = 9678, Reservation_fails = 30
L2_cache_bank[6]: Access = 65408, Miss = 8184, Miss_rate = 0.125, Pending_hits = 9132, Reservation_fails = 24
L2_cache_bank[7]: Access = 62342, Miss = 8184, Miss_rate = 0.131, Pending_hits = 8299, Reservation_fails = 13
L2_total_cache_accesses = 517272
L2_total_cache_misses = 65477
L2_total_cache_miss_rate = 0.1266
L2_total_cache_pending_hits = 75026
L2_total_cache_reservation_fails = 143
L2_total_cache_breakdown:
	L2_cache_stats_breakdown[GLOBAL_ACC_R][HIT] = 376764
	L2_cache_stats_breakdown[GLOBAL_ACC_R][HIT_RESERVED] = 74896
	L2_cache_stats_breakdown[GLOBAL_ACC_R][MISS] = 32768
	L2_cache_stats_breakdown[GLOBAL_ACC_R][RESERVATION_FAIL] = 0
	L2_cache_stats_breakdown[LOCAL_ACC_R][HIT] = 0
	L2_cache_stats_breakdown[LOCAL_ACC_R][HIT_RESERVED] = 0
	L2_cache_stats_breakdown[LOCAL_ACC_R][MISS] = 0
	L2_cache_stats_breakdown[LOCAL_ACC_R][RESERVATION_FAIL] = 0
	L2_cache_stats_breakdown[CONST_ACC_R][HIT] = 0
	L2_cache_stats_breakdown[CONST_ACC_R][HIT_RESERVED] = 27
	L2_cache_stats_breakdown[CONST_ACC_R][MISS] = 1
	L2_cache_stats_breakdown[CONST_ACC_R][RESERVATION_FAIL] = 0
	L2_cache_stats_breakdown[TEXTURE_ACC_R][HIT] = 0
	L2_cache_stats_breakdown[TEXTURE_ACC_R][HIT_RESERVED] = 0
	L2_cache_stats_breakdown[TEXTURE_ACC_R][MISS] = 0
	L2_cache_stats_breakdown[TEXTURE_ACC_R][RESERVATION_FAIL] = 0
	L2_cache_stats_breakdown[GLOBAL_ACC_W][HIT] = 0
	L2_cache_stats_breakdown[GLOBAL_ACC_W][HIT_RESERVED] = 0
	L2_cache_stats_breakdown[GLOBAL_ACC_W][MISS] = 32704
	L2_cache_stats_breakdown[GLOBAL_ACC_W][RESERVATION_FAIL] = 143
	L2_cache_stats_breakdown[LOCAL_ACC_W][HIT] = 0
	L2_cache_stats_breakdown[LOCAL_ACC_W][HIT_RESERVED] = 0
	L2_cache_stats_breakdown[LOCAL_ACC_W][MISS] = 0
	L2_cache_stats_breakdown[LOCAL_ACC_W][RESERVATION_FAIL] = 0
	L2_cache_stats_breakdown[L1_WRBK_ACC][HIT] = 0
	L2_cache_stats_breakdown[L1_WRBK_ACC][HIT_RESERVED] = 0
	L2_cache_stats_breakdown[L1_WRBK_ACC][MISS] = 0
	L2_cache_stats_breakdown[L1_WRBK_ACC][RESERVATION_FAIL] = 0
	L2_cache_stats_breakdown[L2_WRBK_ACC][HIT] = 0
	L2_cache_stats_breakdown[L2_WRBK_ACC][HIT_RESERVED] = 0
	L2_cache_stats_breakdown[L2_WRBK_ACC][MISS] = 0
	L2_cache_stats_breakdown[L2_WRBK_ACC][RESERVATION_FAIL] = 0
	L2_cache_stats_breakdown[INST_ACC_R][HIT] = 5
	L2_cache_stats_breakdown[INST_ACC_R][HIT_RESERVED] = 103
	L2_cache_stats_breakdown[INST_ACC_R][MISS] = 4
	L2_cache_stats_breakdown[INST_ACC_R][RESERVATION_FAIL] = 0
	L2_cache_stats_breakdown[L1_WR_ALLOC_R][HIT] = 0
	L2_cache_stats_breakdown[L1_WR_ALLOC_R][HIT_RESERVED] = 0
	L2_cache_stats_breakdown[L1_WR_ALLOC_R][MISS] = 0
	L2_cache_stats_breakdown[L1_WR_ALLOC_R][RESERVATION_FAIL] = 0
	L2_cache_stats_breakdown[L2_WR_ALLOC_R][HIT] = 0
	L2_cache_stats_breakdown[L2_WR_ALLOC_R][HIT_RESERVED] = 0
	L2_cache_stats_breakdown[L2_WR_ALLOC_R][MISS] = 0
	L2_cache_stats_breakdown[L2_WR_ALLOC_R][RESERVATION_FAIL] = 0
	L2_cache_stats_breakdown[GLOBAL_ACC_R][TOTAL_ACCESS] = 484428
	L2_cache_stats_breakdown[CONST_ACC_R][TOTAL_ACCESS] = 28
	L2_cache_stats_breakdown[GLOBAL_ACC_W][TOTAL_ACCESS] = 32704
	L2_cache_stats_breakdown[INST_ACC_R][TOTAL_ACCESS] = 112
L2_cache_data_port_util = 0.095
L2_cache_fill_port_util = 0.024

icnt_total_pkts_mem_to_simt=1885212
icnt_total_pkts_simt_to_mem=648088
LD_mem_lat_dist  0 0 0 0 0 0 0 0 0 0 0 0 0 0 0 0 0 0 0 0 0 0 0 0 0 0 0
ST_mem_lat_dist  0 0 0 0 0 0 0 0 0 0 0 0 0 0 0 0 0 0 0 0 0 0 0 0 0 0 0
----------------------------Interconnect-DETAILS--------------------------------
Class 0:
Packet latency average = 72.5204
	minimum = 6
	maximum = 1178
Network latency average = 51.8065
	minimum = 6
	maximum = 972
Slowest packet = ae9
Flit latency average = 27.0403
	minimum = 6
	maximum = 972
Slowest flit = 153c0c
Fragmentation average = 0.00573006
	minimum = 0
	maximum = 144
Injected packet rate average = 0.00745208
	minimum = 0 (at node 24)
	maximum = 0.0235676 (at node 1d)
Accepted packet rate average = 0.00745208
	minimum = 0 (at node 24)
	maximum = 0.0235676 (at node 1d)
Injected flit rate average = 0.018248
	minimum = 0 (at node 24)
	maximum = 0.0854463 (at node 1d)
Accepted flit rate average= 0.018248
	minimum = 0 (at node 24)
	maximum = 0.029457 (at node 1d)
Injected packet length average = 2.44871
Accepted packet length average = 2.44871
Total in-flight flits = 0 (0 measured)
====== Overall Traffic Statistics ======
====== Traffic class 0 ======
Packet latency average = 72.5204 (1 samples)
	minimum = 6 (1 samples)
	maximum = 1178 (1 samples)
Network latency average = 51.8065 (1 samples)
	minimum = 6 (1 samples)
	maximum = 972 (1 samples)
Flit latency average = 27.0403 (1 samples)
	minimum = 6 (1 samples)
	maximum = 972 (1 samples)
Fragmentation average = 0.00573006 (1 samples)
	minimum = 0 (1 samples)
	maximum = 144 (1 samples)
Injected packet rate average = 0.00745208 (1 samples)
	minimum = 0 (1 samples)
	maximum = 0.0235676 (1 samples)
Accepted packet rate average = 0.00745208 (1 samples)
	minimum = 0 (1 samples)
	maximum = 0.0235676 (1 samples)
Injected flit rate average = 0.018248 (1 samples)
	minimum = 0 (1 samples)
	maximum = 0.0854463 (1 samples)
Accepted flit rate average = 0.018248 (1 samples)
	minimum = 0 (1 samples)
	maximum = 0.029457 (1 samples)
Injected packet size average = 2.44871 (1 samples)
Accepted packet size average = 2.44871 (1 samples)
Hops average = 1 (1 samples)
----------------------------END-of-Interconnect-DETAILS-------------------------


gpgpu_simulation_time = 0 days, 3 hrs, 35 min, 11 sec (12911 sec)
gpgpu_simulation_rate = 3889 (inst/sec)
gpgpu_simulation_rate = 124 (cycle/sec)
========================================UVM statistics==============================
========================================TLB statistics(access)==============================
Shader0: Tlb_access: 18224 Tlb_hit: 12892 Tlb_miss: 5332 Tlb_hit_rate: 0.707419
Shader1: Tlb_access: 18315 Tlb_hit: 13147 Tlb_miss: 5168 Tlb_hit_rate: 0.717827
Shader2: Tlb_access: 18768 Tlb_hit: 13414 Tlb_miss: 5354 Tlb_hit_rate: 0.714727
Shader3: Tlb_access: 18768 Tlb_hit: 13412 Tlb_miss: 5356 Tlb_hit_rate: 0.714621
Shader4: Tlb_access: 18315 Tlb_hit: 12950 Tlb_miss: 5365 Tlb_hit_rate: 0.707071
Shader5: Tlb_access: 18315 Tlb_hit: 13148 Tlb_miss: 5167 Tlb_hit_rate: 0.717882
Shader6: Tlb_access: 18768 Tlb_hit: 13412 Tlb_miss: 5356 Tlb_hit_rate: 0.714621
Shader7: Tlb_access: 18768 Tlb_hit: 13404 Tlb_miss: 5364 Tlb_hit_rate: 0.714194
Shader8: Tlb_access: 18315 Tlb_hit: 12951 Tlb_miss: 5364 Tlb_hit_rate: 0.707125
Shader9: Tlb_access: 18224 Tlb_hit: 13085 Tlb_miss: 5139 Tlb_hit_rate: 0.718009
Shader10: Tlb_access: 18656 Tlb_hit: 13322 Tlb_miss: 5334 Tlb_hit_rate: 0.714087
Shader11: Tlb_access: 18656 Tlb_hit: 13331 Tlb_miss: 5325 Tlb_hit_rate: 0.714569
Shader12: Tlb_access: 18224 Tlb_hit: 12887 Tlb_miss: 5337 Tlb_hit_rate: 0.707144
Shader13: Tlb_access: 18224 Tlb_hit: 13083 Tlb_miss: 5141 Tlb_hit_rate: 0.717900
Shader14: Tlb_access: 18656 Tlb_hit: 13320 Tlb_miss: 5336 Tlb_hit_rate: 0.713979
Shader15: Tlb_access: 18656 Tlb_hit: 13324 Tlb_miss: 5332 Tlb_hit_rate: 0.714194
Shader16: Tlb_access: 18224 Tlb_hit: 12891 Tlb_miss: 5333 Tlb_hit_rate: 0.707364
Shader17: Tlb_access: 18224 Tlb_hit: 13088 Tlb_miss: 5136 Tlb_hit_rate: 0.718174
Shader18: Tlb_access: 18656 Tlb_hit: 13329 Tlb_miss: 5327 Tlb_hit_rate: 0.714462
Shader19: Tlb_access: 18656 Tlb_hit: 13324 Tlb_miss: 5332 Tlb_hit_rate: 0.714194
Shader20: Tlb_access: 18224 Tlb_hit: 12889 Tlb_miss: 5335 Tlb_hit_rate: 0.707254
Shader21: Tlb_access: 18224 Tlb_hit: 13084 Tlb_miss: 5140 Tlb_hit_rate: 0.717954
Shader22: Tlb_access: 18656 Tlb_hit: 13322 Tlb_miss: 5334 Tlb_hit_rate: 0.714087
Shader23: Tlb_access: 18656 Tlb_hit: 13321 Tlb_miss: 5335 Tlb_hit_rate: 0.714033
Shader24: Tlb_access: 18224 Tlb_hit: 12891 Tlb_miss: 5333 Tlb_hit_rate: 0.707364
Shader25: Tlb_access: 18224 Tlb_hit: 13084 Tlb_miss: 5140 Tlb_hit_rate: 0.717954
Shader26: Tlb_access: 18656 Tlb_hit: 13330 Tlb_miss: 5326 Tlb_hit_rate: 0.714515
Shader27: Tlb_access: 18656 Tlb_hit: 13331 Tlb_miss: 5325 Tlb_hit_rate: 0.714569
Tlb_tot_access: 517132 Tlb_tot_hit: 368966, Tlb_tot_miss: 148166, Tlb_tot_hit_rate: 0.713485
========================================TLB statistics(validate)==============================
Shader0: Tlb_validate: 2088 Tlb_invalidate: 2079 Tlb_evict: 2072 Tlb_page_evict: 7
Shader1: Tlb_validate: 2088 Tlb_invalidate: 2079 Tlb_evict: 2072 Tlb_page_evict: 7
Shader2: Tlb_validate: 2088 Tlb_invalidate: 2079 Tlb_evict: 2072 Tlb_page_evict: 7
Shader3: Tlb_validate: 2088 Tlb_invalidate: 2079 Tlb_evict: 2072 Tlb_page_evict: 7
Shader4: Tlb_validate: 2088 Tlb_invalidate: 2079 Tlb_evict: 2072 Tlb_page_evict: 7
Shader5: Tlb_validate: 2088 Tlb_invalidate: 2079 Tlb_evict: 2072 Tlb_page_evict: 7
Shader6: Tlb_validate: 2088 Tlb_invalidate: 2079 Tlb_evict: 2072 Tlb_page_evict: 7
Shader7: Tlb_validate: 2088 Tlb_invalidate: 2079 Tlb_evict: 2072 Tlb_page_evict: 7
Shader8: Tlb_validate: 2088 Tlb_invalidate: 2079 Tlb_evict: 2072 Tlb_page_evict: 7
Shader9: Tlb_validate: 2088 Tlb_invalidate: 2079 Tlb_evict: 2072 Tlb_page_evict: 7
Shader10: Tlb_validate: 2088 Tlb_invalidate: 2079 Tlb_evict: 2072 Tlb_page_evict: 7
Shader11: Tlb_validate: 2088 Tlb_invalidate: 2079 Tlb_evict: 2072 Tlb_page_evict: 7
Shader12: Tlb_validate: 2088 Tlb_invalidate: 2079 Tlb_evict: 2072 Tlb_page_evict: 7
Shader13: Tlb_validate: 2088 Tlb_invalidate: 2079 Tlb_evict: 2072 Tlb_page_evict: 7
Shader14: Tlb_validate: 2088 Tlb_invalidate: 2079 Tlb_evict: 2072 Tlb_page_evict: 7
Shader15: Tlb_validate: 2088 Tlb_invalidate: 2079 Tlb_evict: 2072 Tlb_page_evict: 7
Shader16: Tlb_validate: 2088 Tlb_invalidate: 2079 Tlb_evict: 2072 Tlb_page_evict: 7
Shader17: Tlb_validate: 2088 Tlb_invalidate: 2079 Tlb_evict: 2072 Tlb_page_evict: 7
Shader18: Tlb_validate: 2088 Tlb_invalidate: 2079 Tlb_evict: 2072 Tlb_page_evict: 7
Shader19: Tlb_validate: 2088 Tlb_invalidate: 2079 Tlb_evict: 2072 Tlb_page_evict: 7
Shader20: Tlb_validate: 2088 Tlb_invalidate: 2079 Tlb_evict: 2072 Tlb_page_evict: 7
Shader21: Tlb_validate: 2088 Tlb_invalidate: 2079 Tlb_evict: 2072 Tlb_page_evict: 7
Shader22: Tlb_validate: 2088 Tlb_invalidate: 2079 Tlb_evict: 2072 Tlb_page_evict: 7
Shader23: Tlb_validate: 2088 Tlb_invalidate: 2079 Tlb_evict: 2072 Tlb_page_evict: 7
Shader24: Tlb_validate: 2088 Tlb_invalidate: 2079 Tlb_evict: 2072 Tlb_page_evict: 7
Shader25: Tlb_validate: 2088 Tlb_invalidate: 2079 Tlb_evict: 2072 Tlb_page_evict: 7
Shader26: Tlb_validate: 2088 Tlb_invalidate: 2079 Tlb_evict: 2072 Tlb_page_evict: 7
Shader27: Tlb_validate: 2088 Tlb_invalidate: 2079 Tlb_evict: 2072 Tlb_page_evict: 7
Tlb_tot_valiate: 58464 Tlb_invalidate: 58212, Tlb_tot_evict: 58016, Tlb_tot_evict page: 196
========================================TLB statistics(thrashing)==============================
Shader0: Page: 786487 Trashed: 1 | Page: 786488 Trashed: 1 | Page: 786535 Trashed: 1 | Page: 786536 Trashed: 1 | Page: 786583 Trashed: 1 | Page: 786584 Trashed: 1 | Page: 786631 Trashed: 1 | Page: 786632 Trashed: 1 | Page: 786679 Trashed: 1 | Page: 786680 Trashed: 1 | Page: 786727 Trashed: 1 | Page: 786728 Trashed: 1 | Page: 786775 Trashed: 1 | Page: 786776 Trashed: 1 | Page: 786823 Trashed: 1 | Page: 786824 Trashed: 1 | Page: 786871 Trashed: 1 | Page: 786872 Trashed: 1 | Page: 786919 Trashed: 1 | Page: 786920 Trashed: 1 | Page: 786967 Trashed: 1 | Page: 786968 Trashed: 1 | Page: 787015 Trashed: 1 | Page: 787016 Trashed: 1 | Page: 787063 Trashed: 1 | Page: 787064 Trashed: 1 | Page: 787111 Trashed: 1 | Page: 787112 Trashed: 1 | Page: 787159 Trashed: 1 | Page: 787160 Trashed: 1 | Page: 787207 Trashed: 1 | Page: 787208 Trashed: 1 | Page: 787255 Trashed: 1 | Page: 787256 Trashed: 1 | Page: 787303 Trashed: 1 | Page: 787304 Trashed: 1 | Page: 787351 Trashed: 1 | Page: 787352 Trashed: 1 | Page: 787399 Trashed: 1 | Page: 787400 Trashed: 1 | Page: 787447 Trashed: 1 | Page: 787448 Trashed: 1 | Total 42
Shader1: Page: 786487 Trashed: 1 | Page: 786488 Trashed: 1 | Page: 786535 Trashed: 1 | Page: 786536 Trashed: 1 | Page: 786583 Trashed: 1 | Page: 786584 Trashed: 1 | Page: 786631 Trashed: 1 | Page: 786632 Trashed: 1 | Page: 786679 Trashed: 1 | Page: 786680 Trashed: 1 | Page: 786727 Trashed: 1 | Page: 786728 Trashed: 1 | Page: 786775 Trashed: 1 | Page: 786776 Trashed: 1 | Page: 786823 Trashed: 1 | Page: 786824 Trashed: 1 | Page: 786871 Trashed: 1 | Page: 786872 Trashed: 1 | Page: 786919 Trashed: 1 | Page: 786920 Trashed: 1 | Page: 786967 Trashed: 1 | Page: 786968 Trashed: 1 | Page: 787015 Trashed: 1 | Page: 787016 Trashed: 1 | Page: 787063 Trashed: 1 | Page: 787064 Trashed: 1 | Page: 787111 Trashed: 1 | Page: 787112 Trashed: 1 | Page: 787159 Trashed: 1 | Page: 787160 Trashed: 1 | Page: 787207 Trashed: 1 | Page: 787208 Trashed: 1 | Page: 787255 Trashed: 1 | Page: 787256 Trashed: 1 | Page: 787303 Trashed: 1 | Page: 787304 Trashed: 1 | Page: 787351 Trashed: 1 | Page: 787352 Trashed: 1 | Page: 787399 Trashed: 1 | Page: 787400 Trashed: 1 | Page: 787447 Trashed: 1 | Page: 787448 Trashed: 1 | Total 42
Shader2: Page: 786487 Trashed: 1 | Page: 786488 Trashed: 1 | Page: 786535 Trashed: 1 | Page: 786536 Trashed: 1 | Page: 786583 Trashed: 1 | Page: 786584 Trashed: 1 | Page: 786631 Trashed: 1 | Page: 786632 Trashed: 1 | Page: 786679 Trashed: 1 | Page: 786680 Trashed: 1 | Page: 786727 Trashed: 1 | Page: 786728 Trashed: 1 | Page: 786775 Trashed: 1 | Page: 786776 Trashed: 1 | Page: 786823 Trashed: 1 | Page: 786824 Trashed: 1 | Page: 786871 Trashed: 1 | Page: 786872 Trashed: 1 | Page: 786919 Trashed: 1 | Page: 786920 Trashed: 1 | Page: 786967 Trashed: 1 | Page: 786968 Trashed: 1 | Page: 787015 Trashed: 1 | Page: 787016 Trashed: 1 | Page: 787063 Trashed: 1 | Page: 787064 Trashed: 1 | Page: 787111 Trashed: 1 | Page: 787112 Trashed: 1 | Page: 787159 Trashed: 1 | Page: 787160 Trashed: 1 | Page: 787207 Trashed: 1 | Page: 787208 Trashed: 1 | Page: 787255 Trashed: 1 | Page: 787256 Trashed: 1 | Page: 787303 Trashed: 1 | Page: 787304 Trashed: 1 | Page: 787351 Trashed: 1 | Page: 787352 Trashed: 1 | Page: 787399 Trashed: 1 | Page: 787400 Trashed: 1 | Page: 787447 Trashed: 1 | Page: 787448 Trashed: 1 | Total 42
Shader3: Page: 786487 Trashed: 1 | Page: 786488 Trashed: 1 | Page: 786535 Trashed: 1 | Page: 786536 Trashed: 1 | Page: 786583 Trashed: 1 | Page: 786584 Trashed: 1 | Page: 786631 Trashed: 1 | Page: 786632 Trashed: 1 | Page: 786679 Trashed: 1 | Page: 786680 Trashed: 1 | Page: 786727 Trashed: 1 | Page: 786728 Trashed: 1 | Page: 786775 Trashed: 1 | Page: 786776 Trashed: 1 | Page: 786823 Trashed: 1 | Page: 786824 Trashed: 1 | Page: 786871 Trashed: 1 | Page: 786872 Trashed: 1 | Page: 786919 Trashed: 1 | Page: 786920 Trashed: 1 | Page: 786967 Trashed: 1 | Page: 786968 Trashed: 1 | Page: 787015 Trashed: 1 | Page: 787016 Trashed: 1 | Page: 787063 Trashed: 1 | Page: 787064 Trashed: 1 | Page: 787111 Trashed: 1 | Page: 787112 Trashed: 1 | Page: 787159 Trashed: 1 | Page: 787160 Trashed: 1 | Page: 787207 Trashed: 1 | Page: 787208 Trashed: 1 | Page: 787255 Trashed: 1 | Page: 787256 Trashed: 1 | Page: 787303 Trashed: 1 | Page: 787304 Trashed: 1 | Page: 787351 Trashed: 1 | Page: 787352 Trashed: 1 | Page: 787399 Trashed: 1 | Page: 787400 Trashed: 1 | Page: 787447 Trashed: 1 | Page: 787448 Trashed: 1 | Total 42
Shader4: Page: 786487 Trashed: 1 | Page: 786488 Trashed: 1 | Page: 786535 Trashed: 1 | Page: 786536 Trashed: 1 | Page: 786583 Trashed: 1 | Page: 786584 Trashed: 1 | Page: 786631 Trashed: 1 | Page: 786632 Trashed: 1 | Page: 786679 Trashed: 1 | Page: 786680 Trashed: 1 | Page: 786727 Trashed: 1 | Page: 786728 Trashed: 1 | Page: 786775 Trashed: 1 | Page: 786776 Trashed: 1 | Page: 786823 Trashed: 1 | Page: 786824 Trashed: 1 | Page: 786871 Trashed: 1 | Page: 786872 Trashed: 1 | Page: 786919 Trashed: 1 | Page: 786920 Trashed: 1 | Page: 786967 Trashed: 1 | Page: 786968 Trashed: 1 | Page: 787015 Trashed: 1 | Page: 787016 Trashed: 1 | Page: 787063 Trashed: 1 | Page: 787064 Trashed: 1 | Page: 787111 Trashed: 1 | Page: 787112 Trashed: 1 | Page: 787159 Trashed: 1 | Page: 787160 Trashed: 1 | Page: 787207 Trashed: 1 | Page: 787208 Trashed: 1 | Page: 787255 Trashed: 1 | Page: 787256 Trashed: 1 | Page: 787303 Trashed: 1 | Page: 787304 Trashed: 1 | Page: 787351 Trashed: 1 | Page: 787352 Trashed: 1 | Page: 787399 Trashed: 1 | Page: 787400 Trashed: 1 | Page: 787447 Trashed: 1 | Page: 787448 Trashed: 1 | Total 42
Shader5: Page: 786487 Trashed: 1 | Page: 786488 Trashed: 1 | Page: 786535 Trashed: 1 | Page: 786536 Trashed: 1 | Page: 786583 Trashed: 1 | Page: 786584 Trashed: 1 | Page: 786631 Trashed: 1 | Page: 786632 Trashed: 1 | Page: 786679 Trashed: 1 | Page: 786680 Trashed: 1 | Page: 786727 Trashed: 1 | Page: 786728 Trashed: 1 | Page: 786775 Trashed: 1 | Page: 786776 Trashed: 1 | Page: 786823 Trashed: 1 | Page: 786824 Trashed: 1 | Page: 786871 Trashed: 1 | Page: 786872 Trashed: 1 | Page: 786919 Trashed: 1 | Page: 786920 Trashed: 1 | Page: 786967 Trashed: 1 | Page: 786968 Trashed: 1 | Page: 787015 Trashed: 1 | Page: 787016 Trashed: 1 | Page: 787063 Trashed: 1 | Page: 787064 Trashed: 1 | Page: 787111 Trashed: 1 | Page: 787112 Trashed: 1 | Page: 787159 Trashed: 1 | Page: 787160 Trashed: 1 | Page: 787207 Trashed: 1 | Page: 787208 Trashed: 1 | Page: 787255 Trashed: 1 | Page: 787256 Trashed: 1 | Page: 787303 Trashed: 1 | Page: 787304 Trashed: 1 | Page: 787351 Trashed: 1 | Page: 787352 Trashed: 1 | Page: 787399 Trashed: 1 | Page: 787400 Trashed: 1 | Page: 787447 Trashed: 1 | Page: 787448 Trashed: 1 | Total 42
Shader6: Page: 786487 Trashed: 1 | Page: 786488 Trashed: 1 | Page: 786535 Trashed: 1 | Page: 786536 Trashed: 1 | Page: 786583 Trashed: 1 | Page: 786584 Trashed: 1 | Page: 786631 Trashed: 1 | Page: 786632 Trashed: 1 | Page: 786679 Trashed: 1 | Page: 786680 Trashed: 1 | Page: 786727 Trashed: 1 | Page: 786728 Trashed: 1 | Page: 786775 Trashed: 1 | Page: 786776 Trashed: 1 | Page: 786823 Trashed: 1 | Page: 786824 Trashed: 1 | Page: 786871 Trashed: 1 | Page: 786872 Trashed: 1 | Page: 786919 Trashed: 1 | Page: 786920 Trashed: 1 | Page: 786967 Trashed: 1 | Page: 786968 Trashed: 1 | Page: 787015 Trashed: 1 | Page: 787016 Trashed: 1 | Page: 787063 Trashed: 1 | Page: 787064 Trashed: 1 | Page: 787111 Trashed: 1 | Page: 787112 Trashed: 1 | Page: 787159 Trashed: 1 | Page: 787160 Trashed: 1 | Page: 787207 Trashed: 1 | Page: 787208 Trashed: 1 | Page: 787255 Trashed: 1 | Page: 787256 Trashed: 1 | Page: 787303 Trashed: 1 | Page: 787304 Trashed: 1 | Page: 787351 Trashed: 1 | Page: 787352 Trashed: 1 | Page: 787399 Trashed: 1 | Page: 787400 Trashed: 1 | Page: 787447 Trashed: 1 | Page: 787448 Trashed: 1 | Total 42
Shader7: Page: 786487 Trashed: 1 | Page: 786488 Trashed: 1 | Page: 786535 Trashed: 1 | Page: 786536 Trashed: 1 | Page: 786583 Trashed: 1 | Page: 786584 Trashed: 1 | Page: 786631 Trashed: 1 | Page: 786632 Trashed: 1 | Page: 786679 Trashed: 1 | Page: 786680 Trashed: 1 | Page: 786727 Trashed: 1 | Page: 786728 Trashed: 1 | Page: 786775 Trashed: 1 | Page: 786776 Trashed: 1 | Page: 786823 Trashed: 1 | Page: 786824 Trashed: 1 | Page: 786871 Trashed: 1 | Page: 786872 Trashed: 1 | Page: 786919 Trashed: 1 | Page: 786920 Trashed: 1 | Page: 786967 Trashed: 1 | Page: 786968 Trashed: 1 | Page: 787015 Trashed: 1 | Page: 787016 Trashed: 1 | Page: 787063 Trashed: 1 | Page: 787064 Trashed: 1 | Page: 787111 Trashed: 1 | Page: 787112 Trashed: 1 | Page: 787159 Trashed: 1 | Page: 787160 Trashed: 1 | Page: 787207 Trashed: 1 | Page: 787208 Trashed: 1 | Page: 787255 Trashed: 1 | Page: 787256 Trashed: 1 | Page: 787303 Trashed: 1 | Page: 787304 Trashed: 1 | Page: 787351 Trashed: 1 | Page: 787352 Trashed: 1 | Page: 787399 Trashed: 1 | Page: 787400 Trashed: 1 | Page: 787447 Trashed: 1 | Page: 787448 Trashed: 1 | Total 42
Shader8: Page: 786487 Trashed: 1 | Page: 786488 Trashed: 1 | Page: 786535 Trashed: 1 | Page: 786536 Trashed: 1 | Page: 786583 Trashed: 1 | Page: 786584 Trashed: 1 | Page: 786631 Trashed: 1 | Page: 786632 Trashed: 1 | Page: 786679 Trashed: 1 | Page: 786680 Trashed: 1 | Page: 786727 Trashed: 1 | Page: 786728 Trashed: 1 | Page: 786775 Trashed: 1 | Page: 786776 Trashed: 1 | Page: 786823 Trashed: 1 | Page: 786824 Trashed: 1 | Page: 786871 Trashed: 1 | Page: 786872 Trashed: 1 | Page: 786919 Trashed: 1 | Page: 786920 Trashed: 1 | Page: 786967 Trashed: 1 | Page: 786968 Trashed: 1 | Page: 787015 Trashed: 1 | Page: 787016 Trashed: 1 | Page: 787063 Trashed: 1 | Page: 787064 Trashed: 1 | Page: 787111 Trashed: 1 | Page: 787112 Trashed: 1 | Page: 787159 Trashed: 1 | Page: 787160 Trashed: 1 | Page: 787207 Trashed: 1 | Page: 787208 Trashed: 1 | Page: 787255 Trashed: 1 | Page: 787256 Trashed: 1 | Page: 787303 Trashed: 1 | Page: 787304 Trashed: 1 | Page: 787351 Trashed: 1 | Page: 787352 Trashed: 1 | Page: 787399 Trashed: 1 | Page: 787400 Trashed: 1 | Page: 787447 Trashed: 1 | Page: 787448 Trashed: 1 | Total 42
Shader9: Page: 786487 Trashed: 1 | Page: 786488 Trashed: 1 | Page: 786535 Trashed: 1 | Page: 786536 Trashed: 1 | Page: 786583 Trashed: 1 | Page: 786584 Trashed: 1 | Page: 786631 Trashed: 1 | Page: 786632 Trashed: 1 | Page: 786679 Trashed: 1 | Page: 786680 Trashed: 1 | Page: 786727 Trashed: 1 | Page: 786728 Trashed: 1 | Page: 786775 Trashed: 1 | Page: 786776 Trashed: 1 | Page: 786823 Trashed: 1 | Page: 786824 Trashed: 1 | Page: 786871 Trashed: 1 | Page: 786872 Trashed: 1 | Page: 786919 Trashed: 1 | Page: 786920 Trashed: 1 | Page: 786967 Trashed: 1 | Page: 786968 Trashed: 1 | Page: 787015 Trashed: 1 | Page: 787016 Trashed: 1 | Page: 787063 Trashed: 1 | Page: 787064 Trashed: 1 | Page: 787111 Trashed: 1 | Page: 787112 Trashed: 1 | Page: 787159 Trashed: 1 | Page: 787160 Trashed: 1 | Page: 787207 Trashed: 1 | Page: 787208 Trashed: 1 | Page: 787255 Trashed: 1 | Page: 787256 Trashed: 1 | Page: 787303 Trashed: 1 | Page: 787304 Trashed: 1 | Page: 787351 Trashed: 1 | Page: 787352 Trashed: 1 | Page: 787399 Trashed: 1 | Page: 787400 Trashed: 1 | Page: 787447 Trashed: 1 | Page: 787448 Trashed: 1 | Total 42
Shader10: Page: 786487 Trashed: 1 | Page: 786488 Trashed: 1 | Page: 786535 Trashed: 1 | Page: 786536 Trashed: 1 | Page: 786583 Trashed: 1 | Page: 786584 Trashed: 1 | Page: 786631 Trashed: 1 | Page: 786632 Trashed: 1 | Page: 786679 Trashed: 1 | Page: 786680 Trashed: 1 | Page: 786727 Trashed: 1 | Page: 786728 Trashed: 1 | Page: 786775 Trashed: 1 | Page: 786776 Trashed: 1 | Page: 786823 Trashed: 1 | Page: 786824 Trashed: 1 | Page: 786871 Trashed: 1 | Page: 786872 Trashed: 1 | Page: 786919 Trashed: 1 | Page: 786920 Trashed: 1 | Page: 786967 Trashed: 1 | Page: 786968 Trashed: 1 | Page: 787015 Trashed: 1 | Page: 787016 Trashed: 1 | Page: 787063 Trashed: 1 | Page: 787064 Trashed: 1 | Page: 787111 Trashed: 1 | Page: 787112 Trashed: 1 | Page: 787159 Trashed: 1 | Page: 787160 Trashed: 1 | Page: 787207 Trashed: 1 | Page: 787208 Trashed: 1 | Page: 787255 Trashed: 1 | Page: 787256 Trashed: 1 | Page: 787303 Trashed: 1 | Page: 787304 Trashed: 1 | Page: 787351 Trashed: 1 | Page: 787352 Trashed: 1 | Page: 787399 Trashed: 1 | Page: 787400 Trashed: 1 | Page: 787447 Trashed: 1 | Page: 787448 Trashed: 1 | Total 42
Shader11: Page: 786487 Trashed: 1 | Page: 786488 Trashed: 1 | Page: 786535 Trashed: 1 | Page: 786536 Trashed: 1 | Page: 786583 Trashed: 1 | Page: 786584 Trashed: 1 | Page: 786631 Trashed: 1 | Page: 786632 Trashed: 1 | Page: 786679 Trashed: 1 | Page: 786680 Trashed: 1 | Page: 786727 Trashed: 1 | Page: 786728 Trashed: 1 | Page: 786775 Trashed: 1 | Page: 786776 Trashed: 1 | Page: 786823 Trashed: 1 | Page: 786824 Trashed: 1 | Page: 786871 Trashed: 1 | Page: 786872 Trashed: 1 | Page: 786919 Trashed: 1 | Page: 786920 Trashed: 1 | Page: 786967 Trashed: 1 | Page: 786968 Trashed: 1 | Page: 787015 Trashed: 1 | Page: 787016 Trashed: 1 | Page: 787063 Trashed: 1 | Page: 787064 Trashed: 1 | Page: 787111 Trashed: 1 | Page: 787112 Trashed: 1 | Page: 787159 Trashed: 1 | Page: 787160 Trashed: 1 | Page: 787207 Trashed: 1 | Page: 787208 Trashed: 1 | Page: 787255 Trashed: 1 | Page: 787256 Trashed: 1 | Page: 787303 Trashed: 1 | Page: 787304 Trashed: 1 | Page: 787351 Trashed: 1 | Page: 787352 Trashed: 1 | Page: 787399 Trashed: 1 | Page: 787400 Trashed: 1 | Page: 787447 Trashed: 1 | Page: 787448 Trashed: 1 | Total 42
Shader12: Page: 786487 Trashed: 1 | Page: 786488 Trashed: 1 | Page: 786535 Trashed: 1 | Page: 786536 Trashed: 1 | Page: 786583 Trashed: 1 | Page: 786584 Trashed: 1 | Page: 786631 Trashed: 1 | Page: 786632 Trashed: 1 | Page: 786679 Trashed: 1 | Page: 786680 Trashed: 1 | Page: 786727 Trashed: 1 | Page: 786728 Trashed: 1 | Page: 786775 Trashed: 1 | Page: 786776 Trashed: 1 | Page: 786823 Trashed: 1 | Page: 786824 Trashed: 1 | Page: 786871 Trashed: 1 | Page: 786872 Trashed: 1 | Page: 786919 Trashed: 1 | Page: 786920 Trashed: 1 | Page: 786967 Trashed: 1 | Page: 786968 Trashed: 1 | Page: 787015 Trashed: 1 | Page: 787016 Trashed: 1 | Page: 787063 Trashed: 1 | Page: 787064 Trashed: 1 | Page: 787111 Trashed: 1 | Page: 787112 Trashed: 1 | Page: 787159 Trashed: 1 | Page: 787160 Trashed: 1 | Page: 787207 Trashed: 1 | Page: 787208 Trashed: 1 | Page: 787255 Trashed: 1 | Page: 787256 Trashed: 1 | Page: 787303 Trashed: 1 | Page: 787304 Trashed: 1 | Page: 787351 Trashed: 1 | Page: 787352 Trashed: 1 | Page: 787399 Trashed: 1 | Page: 787400 Trashed: 1 | Page: 787447 Trashed: 1 | Page: 787448 Trashed: 1 | Total 42
Shader13: Page: 786487 Trashed: 1 | Page: 786488 Trashed: 1 | Page: 786535 Trashed: 1 | Page: 786536 Trashed: 1 | Page: 786583 Trashed: 1 | Page: 786584 Trashed: 1 | Page: 786631 Trashed: 1 | Page: 786632 Trashed: 1 | Page: 786679 Trashed: 1 | Page: 786680 Trashed: 1 | Page: 786727 Trashed: 1 | Page: 786728 Trashed: 1 | Page: 786775 Trashed: 1 | Page: 786776 Trashed: 1 | Page: 786823 Trashed: 1 | Page: 786824 Trashed: 1 | Page: 786871 Trashed: 1 | Page: 786872 Trashed: 1 | Page: 786919 Trashed: 1 | Page: 786920 Trashed: 1 | Page: 786967 Trashed: 1 | Page: 786968 Trashed: 1 | Page: 787015 Trashed: 1 | Page: 787016 Trashed: 1 | Page: 787063 Trashed: 1 | Page: 787064 Trashed: 1 | Page: 787111 Trashed: 1 | Page: 787112 Trashed: 1 | Page: 787159 Trashed: 1 | Page: 787160 Trashed: 1 | Page: 787207 Trashed: 1 | Page: 787208 Trashed: 1 | Page: 787255 Trashed: 1 | Page: 787256 Trashed: 1 | Page: 787303 Trashed: 1 | Page: 787304 Trashed: 1 | Page: 787351 Trashed: 1 | Page: 787352 Trashed: 1 | Page: 787399 Trashed: 1 | Page: 787400 Trashed: 1 | Page: 787447 Trashed: 1 | Page: 787448 Trashed: 1 | Total 42
[...]
F:   495206----T:   503446 	 St: c04c1000 Sz: 61440 	 Sm: 0 	 T: memcpy_h2d(5.563808)
F:   504171----T:   506971 	 St: c00d0000 Sz: 8192 	 Sm: 0 	 T: memcpy_h2d(1.890614)
F:   506971----T:   514751 	 St: c00d2000 Sz: 57344 	 Sm: 0 	 T: memcpy_h2d(5.253207)
F:   514751----T:   517551 	 St: c00e0000 Sz: 8192 	 Sm: 0 	 T: memcpy_h2d(1.890614)
F:   517551----T:   525331 	 St: c00e2000 Sz: 57344 	 Sm: 0 	 T: memcpy_h2d(5.253207)
F:   525331----T:   528131 	 St: c00f0000 Sz: 8192 	 Sm: 0 	 T: memcpy_h2d(1.890614)
F:   528131----T:   535911 	 St: c00f2000 Sz: 57344 	 Sm: 0 	 T: memcpy_h2d(5.253207)
F:   535911----T:   538516 	 St: c04d0000 Sz: 4096 	 Sm: 0 	 T: memcpy_h2d(1.758947)
F:   538516----T:   546756 	 St: c04d1000 Sz: 61440 	 Sm: 0 	 T: memcpy_h2d(5.563808)
F:   546756----T:   549361 	 St: c04e0000 Sz: 4096 	 Sm: 0 	 T: memcpy_h2d(1.758947)
F:   549361----T:   557601 	 St: c04e1000 Sz: 61440 	 Sm: 0 	 T: memcpy_h2d(5.563808)
F:   557601----T:   560206 	 St: c04f0000 Sz: 4096 	 Sm: 0 	 T: memcpy_h2d(1.758947)
F:   560206----T:   568446 	 St: c04f1000 Sz: 61440 	 Sm: 0 	 T: memcpy_h2d(5.563808)
F:   569171----T:   571971 	 St: c0100000 Sz: 8192 	 Sm: 0 	 T: memcpy_h2d(1.890614)
F:   571971----T:   579751 	 St: c0102000 Sz: 57344 	 Sm: 0 	 T: memcpy_h2d(5.253207)
F:   579751----T:   582551 	 St: c0110000 Sz: 8192 	 Sm: 0 	 T: memcpy_h2d(1.890614)
F:   582551----T:   590331 	 St: c0112000 Sz: 57344 	 Sm: 0 	 T: memcpy_h2d(5.253207)
F:   590331----T:   593131 	 St: c0120000 Sz: 8192 	 Sm: 0 	 T: memcpy_h2d(1.890614)
F:   593131----T:   600911 	 St: c0122000 Sz: 57344 	 Sm: 0 	 T: memcpy_h2d(5.253207)
F:   600911----T:   603516 	 St: c0500000 Sz: 4096 	 Sm: 0 	 T: memcpy_h2d(1.758947)
F:   603516----T:   611756 	 St: c0501000 Sz: 61440 	 Sm: 0 	 T: memcpy_h2d(5.563808)
F:   611756----T:   614361 	 St: c0510000 Sz: 4096 	 Sm: 0 	 T: memcpy_h2d(1.758947)
F:   614361----T:   622601 	 St: c0511000 Sz: 61440 	 Sm: 0 	 T: memcpy_h2d(5.563808)
F:   622601----T:   625206 	 St: c0520000 Sz: 4096 	 Sm: 0 	 T: memcpy_h2d(1.758947)
F:   625206----T:   633446 	 St: c0521000 Sz: 61440 	 Sm: 0 	 T: memcpy_h2d(5.563808)
F:   634170----T:   637600 	 St: c0130000 Sz: 16384 	 Sm: 0 	 T: memcpy_h2d(2.316003)
F:   637600----T:   644465 	 St: c0134000 Sz: 49152 	 Sm: 0 	 T: memcpy_h2d(4.635382)
F:   644465----T:   647265 	 St: c0140000 Sz: 8192 	 Sm: 0 	 T: memcpy_h2d(1.890614)
F:   647265----T:   655045 	 St: c0142000 Sz: 57344 	 Sm: 0 	 T: memcpy_h2d(5.253207)
F:   655045----T:   657845 	 St: c0150000 Sz: 8192 	 Sm: 0 	 T: memcpy_h2d(1.890614)
F:   657845----T:   665625 	 St: c0152000 Sz: 57344 	 Sm: 0 	 T: memcpy_h2d(5.253207)
F:   665625----T:   668230 	 St: c0530000 Sz: 4096 	 Sm: 0 	 T: memcpy_h2d(1.758947)
F:   668230----T:   676470 	 St: c0531000 Sz: 61440 	 Sm: 0 	 T: memcpy_h2d(5.563808)
F:   676470----T:   679075 	 St: c0540000 Sz: 4096 	 Sm: 0 	 T: memcpy_h2d(1.758947)
F:   679075----T:   687315 	 St: c0541000 Sz: 61440 	 Sm: 0 	 T: memcpy_h2d(5.563808)
F:   687315----T:   689920 	 St: c0550000 Sz: 4096 	 Sm: 0 	 T: memcpy_h2d(1.758947)
F:   689920----T:   698160 	 St: c0551000 Sz: 61440 	 Sm: 0 	 T: memcpy_h2d(5.563808)
F:   698885----T:   701685 	 St: c0160000 Sz: 8192 	 Sm: 0 	 T: memcpy_h2d(1.890614)
F:   701685----T:   709465 	 St: c0162000 Sz: 57344 	 Sm: 0 	 T: memcpy_h2d(5.253207)
F:   709465----T:   712265 	 St: c0170000 Sz: 8192 	 Sm: 0 	 T: memcpy_h2d(1.890614)
F:   712265----T:   720045 	 St: c0172000 Sz: 57344 	 Sm: 0 	 T: memcpy_h2d(5.253207)
F:   720045----T:   722845 	 St: c0180000 Sz: 8192 	 Sm: 0 	 T: memcpy_h2d(1.890614)
F:   722845----T:   730625 	 St: c0182000 Sz: 57344 	 Sm: 0 	 T: memcpy_h2d(5.253207)
F:   730625----T:   733230 	 St: c0560000 Sz: 4096 	 Sm: 0 	 T: memcpy_h2d(1.758947)
F:   733230----T:   741470 	 St: c0561000 Sz: 61440 	 Sm: 0 	 T: memcpy_h2d(5.563808)
F:   741470----T:   744075 	 St: c0570000 Sz: 4096 	 Sm: 0 	 T: memcpy_h2d(1.758947)
F:   744075----T:   752315 	 St: c0571000 Sz: 61440 	 Sm: 0 	 T: memcpy_h2d(5.563808)
F:   752315----T:   754920 	 St: c0580000 Sz: 4096 	 Sm: 0 	 T: memcpy_h2d(1.758947)
F:   754920----T:   763160 	 St: c0581000 Sz: 61440 	 Sm: 0 	 T: memcpy_h2d(5.563808)
F:   763885----T:   766685 	 St: c0190000 Sz: 8192 	 Sm: 0 	 T: memcpy_h2d(1.890614)
F:   766685----T:   774465 	 St: c0192000 Sz: 57344 	 Sm: 0 	 T: memcpy_h2d(5.253207)
F:   774465----T:   777265 	 St: c01a0000 Sz: 8192 	 Sm: 0 	 T: memcpy_h2d(1.890614)
F:   777265----T:   785045 	 St: c01a2000 Sz: 57344 	 Sm: 0 	 T: memcpy_h2d(5.253207)
F:   785045----T:   787845 	 St: c01b0000 Sz: 8192 	 Sm: 0 	 T: memcpy_h2d(1.890614)
F:   787845----T:   795625 	 St: c01b2000 Sz: 57344 	 Sm: 0 	 T: memcpy_h2d(5.253207)
F:   795625----T:   798230 	 St: c0590000 Sz: 4096 	 Sm: 0 	 T: memcpy_h2d(1.758947)
F:   798230----T:   806470 	 St: c0591000 Sz: 61440 	 Sm: 0 	 T: memcpy_h2d(5.563808)
F:   806470----T:   809075 	 St: c05a0000 Sz: 4096 	 Sm: 0 	 T: memcpy_h2d(1.758947)
F:   809075----T:   817315 	 St: c05a1000 Sz: 61440 	 Sm: 0 	 T: memcpy_h2d(5.563808)
F:   817315----T:   819920 	 St: c05b0000 Sz: 4096 	 Sm: 0 	 T: memcpy_h2d(1.758947)
F:   819920----T:   828160 	 St: c05b1000 Sz: 61440 	 Sm: 0 	 T: memcpy_h2d(5.563808)
F:   828885----T:   831685 	 St: c01c0000 Sz: 8192 	 Sm: 0 	 T: memcpy_h2d(1.890614)
F:   831685----T:   839465 	 St: c01c2000 Sz: 57344 	 Sm: 0 	 T: memcpy_h2d(5.253207)
F:   839465----T:   842265 	 St: c01d0000 Sz: 8192 	 Sm: 0 	 T: memcpy_h2d(1.890614)
F:   842265----T:   850045 	 St: c01d2000 Sz: 57344 	 Sm: 0 	 T: memcpy_h2d(5.253207)
F:   850045----T:   852845 	 St: c01e0000 Sz: 8192 	 Sm: 0 	 T: memcpy_h2d(1.890614)
F:   852845----T:   860625 	 St: c01e2000 Sz: 57344 	 Sm: 0 	 T: memcpy_h2d(5.253207)
F:   860625----T:   863230 	 St: c05c0000 Sz: 4096 	 Sm: 0 	 T: memcpy_h2d(1.758947)
F:   863230----T:   871470 	 St: c05c1000 Sz: 61440 	 Sm: 0 	 T: memcpy_h2d(5.563808)
F:   871470----T:   874075 	 St: c05d0000 Sz: 4096 	 Sm: 0 	 T: memcpy_h2d(1.758947)
F:   874075----T:   882315 	 St: c05d1000 Sz: 61440 	 Sm: 0 	 T: memcpy_h2d(5.563808)
F:   882315----T:   884920 	 St: c05e0000 Sz: 4096 	 Sm: 0 	 T: memcpy_h2d(1.758947)
F:   884920----T:   893160 	 St: c05e1000 Sz: 61440 	 Sm: 0 	 T: memcpy_h2d(5.563808)
F:   893884----T:   897314 	 St: c01f0000 Sz: 16384 	 Sm: 0 	 T: memcpy_h2d(2.316003)
F:   897314----T:   904179 	 St: c01f4000 Sz: 49152 	 Sm: 0 	 T: memcpy_h2d(4.635382)
F:   904179----T:   906979 	 St: c0200000 Sz: 8192 	 Sm: 0 	 T: memcpy_h2d(1.890614)
F:   906979----T:   914759 	 St: c0202000 Sz: 57344 	 Sm: 0 	 T: memcpy_h2d(5.253207)
F:   914759----T:   917559 	 St: c0210000 Sz: 8192 	 Sm: 0 	 T: memcpy_h2d(1.890614)
F:   917559----T:   925339 	 St: c0212000 Sz: 57344 	 Sm: 0 	 T: memcpy_h2d(5.253207)
F:   925339----T:   927944 	 St: c05f0000 Sz: 4096 	 Sm: 0 	 T: memcpy_h2d(1.758947)
F:   927944----T:   936184 	 St: c05f1000 Sz: 61440 	 Sm: 0 	 T: memcpy_h2d(5.563808)
F:   936184----T:   938789 	 St: c0600000 Sz: 4096 	 Sm: 0 	 T: memcpy_h2d(1.758947)
F:   938789----T:   947029 	 St: c0601000 Sz: 61440 	 Sm: 0 	 T: memcpy_h2d(5.563808)
F:   947029----T:   949634 	 St: c0610000 Sz: 4096 	 Sm: 0 	 T: memcpy_h2d(1.758947)
F:   949634----T:   957874 	 St: c0611000 Sz: 61440 	 Sm: 0 	 T: memcpy_h2d(5.563808)
F:   958599----T:   961399 	 St: c0220000 Sz: 8192 	 Sm: 0 	 T: memcpy_h2d(1.890614)
F:   961399----T:   969179 	 St: c0222000 Sz: 57344 	 Sm: 0 	 T: memcpy_h2d(5.253207)
F:   969179----T:   971979 	 St: c0230000 Sz: 8192 	 Sm: 0 	 T: memcpy_h2d(1.890614)
F:   971979----T:   979759 	 St: c0232000 Sz: 57344 	 Sm: 0 	 T: memcpy_h2d(5.253207)
F:   979759----T:   982559 	 St: c0240000 Sz: 8192 	 Sm: 0 	 T: memcpy_h2d(1.890614)
F:   982559----T:   990339 	 St: c0242000 Sz: 57344 	 Sm: 0 	 T: memcpy_h2d(5.253207)
F:   990339----T:   992944 	 St: c0620000 Sz: 4096 	 Sm: 0 	 T: memcpy_h2d(1.758947)
F:   992944----T:  1001184 	 St: c0621000 Sz: 61440 	 Sm: 0 	 T: memcpy_h2d(5.563808)
F:  1001184----T:  1003789 	 St: c0630000 Sz: 4096 	 Sm: 0 	 T: memcpy_h2d(1.758947)
F:  1003789----T:  1012029 	 St: c0631000 Sz: 61440 	 Sm: 0 	 T: memcpy_h2d(5.563808)
F:  1012029----T:  1014634 	 St: c0640000 Sz: 4096 	 Sm: 0 	 T: memcpy_h2d(1.758947)
F:  1014634----T:  1022874 	 St: c0641000 Sz: 61440 	 Sm: 0 	 T: memcpy_h2d(5.563808)
F:  1023599----T:  1026399 	 St: c0250000 Sz: 8192 	 Sm: 0 	 T: memcpy_h2d(1.890614)
F:  1026399----T:  1034179 	 St: c0252000 Sz: 57344 	 Sm: 0 	 T: memcpy_h2d(5.253207)
F:  1034179----T:  1036979 	 St: c0260000 Sz: 8192 	 Sm: 0 	 T: memcpy_h2d(1.890614)
F:  1036979----T:  1044759 	 St: c0262000 Sz: 57344 	 Sm: 0 	 T: memcpy_h2d(5.253207)
F:  1044759----T:  1047559 	 St: c0270000 Sz: 8192 	 Sm: 0 	 T: memcpy_h2d(1.890614)
F:  1047559----T:  1055339 	 St: c0272000 Sz: 57344 	 Sm: 0 	 T: memcpy_h2d(5.253207)
F:  1055339----T:  1057944 	 St: c0650000 Sz: 4096 	 Sm: 0 	 T: memcpy_h2d(1.758947)
F:  1057944----T:  1066184 	 St: c0651000 Sz: 61440 	 Sm: 0 	 T: memcpy_h2d(5.563808)
F:  1066184----T:  1068789 	 St: c0660000 Sz: 4096 	 Sm: 0 	 T: memcpy_h2d(1.758947)
F:  1068789----T:  1077029 	 St: c0661000 Sz: 61440 	 Sm: 0 	 T: memcpy_h2d(5.563808)
F:  1077029----T:  1079634 	 St: c0670000 Sz: 4096 	 Sm: 0 	 T: memcpy_h2d(1.758947)
F:  1079634----T:  1087874 	 St: c0671000 Sz: 61440 	 Sm: 0 	 T: memcpy_h2d(5.563808)
F:  1088599----T:  1091399 	 St: c0280000 Sz: 8192 	 Sm: 0 	 T: memcpy_h2d(1.890614)
F:  1091399----T:  1099179 	 St: c0282000 Sz: 57344 	 Sm: 0 	 T: memcpy_h2d(5.253207)
F:  1099179----T:  1101979 	 St: c0290000 Sz: 8192 	 Sm: 0 	 T: memcpy_h2d(1.890614)
F:  1101979----T:  1109759 	 St: c0292000 Sz: 57344 	 Sm: 0 	 T: memcpy_h2d(5.253207)
F:  1109759----T:  1112559 	 St: c02a0000 Sz: 8192 	 Sm: 0 	 T: memcpy_h2d(1.890614)
F:  1112559----T:  1120339 	 St: c02a2000 Sz: 57344 	 Sm: 0 	 T: memcpy_h2d(5.253207)
F:  1120339----T:  1122944 	 St: c0680000 Sz: 4096 	 Sm: 0 	 T: memcpy_h2d(1.758947)
F:  1122944----T:  1131184 	 St: c0681000 Sz: 61440 	 Sm: 0 	 T: memcpy_h2d(5.563808)
F:  1131184----T:  1133789 	 St: c0690000 Sz: 4096 	 Sm: 0 	 T: memcpy_h2d(1.758947)
F:  1133789----T:  1142029 	 St: c0691000 Sz: 61440 	 Sm: 0 	 T: memcpy_h2d(5.563808)
F:  1142029----T:  1144634 	 St: c06a0000 Sz: 4096 	 Sm: 0 	 T: memcpy_h2d(1.758947)
F:  1144634----T:  1152874 	 St: c06a1000 Sz: 61440 	 Sm: 0 	 T: memcpy_h2d(5.563808)
F:  1153598----T:  1157028 	 St: c02b0000 Sz: 16384 	 Sm: 0 	 T: memcpy_h2d(2.316003)
F:  1157028----T:  1163893 	 St: c02b4000 Sz: 49152 	 Sm: 0 	 T: memcpy_h2d(4.635382)
F:  1163893----T:  1166693 	 St: c02c0000 Sz: 8192 	 Sm: 0 	 T: memcpy_h2d(1.890614)
F:  1166693----T:  1174473 	 St: c02c2000 Sz: 57344 	 Sm: 0 	 T: memcpy_h2d(5.253207)
F:  1174473----T:  1177273 	 St: c02d0000 Sz: 8192 	 Sm: 0 	 T: memcpy_h2d(1.890614)
F:  1177273----T:  1185053 	 St: c02d2000 Sz: 57344 	 Sm: 0 	 T: memcpy_h2d(5.253207)
F:  1185053----T:  1187658 	 St: c06b0000 Sz: 4096 	 Sm: 0 	 T: memcpy_h2d(1.758947)
F:  1187658----T:  1195898 	 St: c06b1000 Sz: 61440 	 Sm: 0 	 T: memcpy_h2d(5.563808)
F:  1195898----T:  1198503 	 St: c06c0000 Sz: 4096 	 Sm: 0 	 T: memcpy_h2d(1.758947)
F:  1198503----T:  1206743 	 St: c06c1000 Sz: 61440 	 Sm: 0 	 T: memcpy_h2d(5.563808)
F:  1206743----T:  1209348 	 St: c06d0000 Sz: 4096 	 Sm: 0 	 T: memcpy_h2d(1.758947)
F:  1209348----T:  1217588 	 St: c06d1000 Sz: 61440 	 Sm: 0 	 T: memcpy_h2d(5.563808)
F:  1218313----T:  1221113 	 St: c02e0000 Sz: 8192 	 Sm: 0 	 T: memcpy_h2d(1.890614)
F:  1221113----T:  1228893 	 St: c02e2000 Sz: 57344 	 Sm: 0 	 T: memcpy_h2d(5.253207)
F:  1228893----T:  1231693 	 St: c02f0000 Sz: 8192 	 Sm: 0 	 T: memcpy_h2d(1.890614)
F:  1231693----T:  1239473 	 St: c02f2000 Sz: 57344 	 Sm: 0 	 T: memcpy_h2d(5.253207)
F:  1239473----T:  1242273 	 St: c0300000 Sz: 8192 	 Sm: 0 	 T: memcpy_h2d(1.890614)
F:  1242273----T:  1250053 	 St: c0302000 Sz: 57344 	 Sm: 0 	 T: memcpy_h2d(5.253207)
F:  1250053----T:  1252658 	 St: c06e0000 Sz: 4096 	 Sm: 0 	 T: memcpy_h2d(1.758947)
F:  1252658----T:  1260898 	 St: c06e1000 Sz: 61440 	 Sm: 0 	 T: memcpy_h2d(5.563808)
F:  1260898----T:  1263503 	 St: c06f0000 Sz: 4096 	 Sm: 0 	 T: memcpy_h2d(1.758947)
F:  1263503----T:  1271743 	 St: c06f1000 Sz: 61440 	 Sm: 0 	 T: memcpy_h2d(5.563808)
F:  1271743----T:  1274348 	 St: c0700000 Sz: 4096 	 Sm: 0 	 T: memcpy_h2d(1.758947)
F:  1274348----T:  1282588 	 St: c0701000 Sz: 61440 	 Sm: 0 	 T: memcpy_h2d(5.563808)
F:  1283313----T:  1286113 	 St: c0310000 Sz: 8192 	 Sm: 0 	 T: memcpy_h2d(1.890614)
F:  1286113----T:  1293893 	 St: c0312000 Sz: 57344 	 Sm: 0 	 T: memcpy_h2d(5.253207)
F:  1293893----T:  1296693 	 St: c0320000 Sz: 8192 	 Sm: 0 	 T: memcpy_h2d(1.890614)
F:  1296693----T:  1304473 	 St: c0322000 Sz: 57344 	 Sm: 0 	 T: memcpy_h2d(5.253207)
F:  1304473----T:  1307273 	 St: c0330000 Sz: 8192 	 Sm: 0 	 T: memcpy_h2d(1.890614)
F:  1307273----T:  1315053 	 St: c0332000 Sz: 57344 	 Sm: 0 	 T: memcpy_h2d(5.253207)
F:  1315053----T:  1317658 	 St: c0710000 Sz: 4096 	 Sm: 0 	 T: memcpy_h2d(1.758947)
F:  1317658----T:  1325898 	 St: c0711000 Sz: 61440 	 Sm: 0 	 T: memcpy_h2d(5.563808)
F:  1325898----T:  1328503 	 St: c0720000 Sz: 4096 	 Sm: 0 	 T: memcpy_h2d(1.758947)
F:  1328503----T:  1336743 	 St: c0721000 Sz: 61440 	 Sm: 0 	 T: memcpy_h2d(5.563808)
F:  1336743----T:  1339348 	 St: c0730000 Sz: 4096 	 Sm: 0 	 T: memcpy_h2d(1.758947)
F:  1339348----T:  1347588 	 St: c0731000 Sz: 61440 	 Sm: 0 	 T: memcpy_h2d(5.563808)
F:  1348313----T:  1351113 	 St: c0340000 Sz: 8192 	 Sm: 0 	 T: memcpy_h2d(1.890614)
F:  1351113----T:  1358893 	 St: c0342000 Sz: 57344 	 Sm: 0 	 T: memcpy_h2d(5.253207)
F:  1358893----T:  1361693 	 St: c0350000 Sz: 8192 	 Sm: 0 	 T: memcpy_h2d(1.890614)
F:  1361693----T:  1369473 	 St: c0352000 Sz: 57344 	 Sm: 0 	 T: memcpy_h2d(5.253207)
F:  1369473----T:  1372273 	 St: c0360000 Sz: 8192 	 Sm: 0 	 T: memcpy_h2d(1.890614)
F:  1372273----T:  1380053 	 St: c0362000 Sz: 57344 	 Sm: 0 	 T: memcpy_h2d(5.253207)
F:  1380053----T:  1382658 	 St: c0740000 Sz: 4096 	 Sm: 0 	 T: memcpy_h2d(1.758947)
F:  1382658----T:  1390898 	 St: c0741000 Sz: 61440 	 Sm: 0 	 T: memcpy_h2d(5.563808)
F:  1390898----T:  1393503 	 St: c0750000 Sz: 4096 	 Sm: 0 	 T: memcpy_h2d(1.758947)
F:  1393503----T:  1401743 	 St: c0751000 Sz: 61440 	 Sm: 0 	 T: memcpy_h2d(5.563808)
F:  1401743----T:  1404348 	 St: c0760000 Sz: 4096 	 Sm: 0 	 T: memcpy_h2d(1.758947)
F:  1404348----T:  1412588 	 St: c0761000 Sz: 61440 	 Sm: 0 	 T: memcpy_h2d(5.563808)
F:  1413313----T:  1416113 	 St: c0370000 Sz: 8192 	 Sm: 0 	 T: memcpy_h2d(1.890614)
F:  1416113----T:  1423893 	 St: c0372000 Sz: 57344 	 Sm: 0 	 T: memcpy_h2d(5.253207)
F:  1423893----T:  1426693 	 St: c0380000 Sz: 8192 	 Sm: 0 	 T: memcpy_h2d(1.890614)
F:  1426693----T:  1434473 	 St: c0382000 Sz: 57344 	 Sm: 0 	 T: memcpy_h2d(5.253207)
F:  1434473----T:  1437273 	 St: c0390000 Sz: 8192 	 Sm: 0 	 T: memcpy_h2d(1.890614)
F:  1437273----T:  1445053 	 St: c0392000 Sz: 57344 	 Sm: 0 	 T: memcpy_h2d(5.253207)
F:  1445053----T:  1447658 	 St: c0770000 Sz: 4096 	 Sm: 0 	 T: memcpy_h2d(1.758947)
F:  1447658----T:  1455898 	 St: c0771000 Sz: 61440 	 Sm: 0 	 T: memcpy_h2d(5.563808)
F:  1455898----T:  1458503 	 St: c0780000 Sz: 4096 	 Sm: 0 	 T: memcpy_h2d(1.758947)
F:  1458503----T:  1466743 	 St: c0781000 Sz: 61440 	 Sm: 0 	 T: memcpy_h2d(5.563808)
F:  1466743----T:  1469348 	 St: c0790000 Sz: 4096 	 Sm: 0 	 T: memcpy_h2d(1.758947)
F:  1469348----T:  1477588 	 St: c0791000 Sz: 61440 	 Sm: 0 	 T: memcpy_h2d(5.563808)
F:  1478313----T:  1481113 	 St: c03a0000 Sz: 8192 	 Sm: 0 	 T: memcpy_h2d(1.890614)
F:  1481113----T:  1488893 	 St: c03a2000 Sz: 57344 	 Sm: 0 	 T: memcpy_h2d(5.253207)
F:  1488893----T:  1491693 	 St: c03b0000 Sz: 8192 	 Sm: 0 	 T: memcpy_h2d(1.890614)
F:  1491693----T:  1499473 	 St: c03b2000 Sz: 57344 	 Sm: 0 	 T: memcpy_h2d(5.253207)
F:  1499473----T:  1502273 	 St: c03c0000 Sz: 8192 	 Sm: 0 	 T: memcpy_h2d(1.890614)
F:  1502273----T:  1510053 	 St: c03c2000 Sz: 57344 	 Sm: 0 	 T: memcpy_h2d(5.253207)
F:  1510053----T:  1512658 	 St: c07a0000 Sz: 4096 	 Sm: 0 	 T: memcpy_h2d(1.758947)
F:  1512658----T:  1520898 	 St: c07a1000 Sz: 61440 	 Sm: 0 	 T: memcpy_h2d(5.563808)
F:  1520898----T:  1523503 	 St: c07b0000 Sz: 4096 	 Sm: 0 	 T: memcpy_h2d(1.758947)
F:  1523503----T:  1531743 	 St: c07b1000 Sz: 61440 	 Sm: 0 	 T: memcpy_h2d(5.563808)
F:  1531743----T:  1534348 	 St: c07c0000 Sz: 4096 	 Sm: 0 	 T: memcpy_h2d(1.758947)
F:  1534348----T:  1542588 	 St: c07c1000 Sz: 61440 	 Sm: 0 	 T: memcpy_h2d(5.563808)
F:  1543313----T:  1546113 	 St: c03d0000 Sz: 8192 	 Sm: 0 	 T: memcpy_h2d(1.890614)
F:  1546113----T:  1553893 	 St: c03d2000 Sz: 57344 	 Sm: 0 	 T: memcpy_h2d(5.253207)
F:  1553893----T:  1556693 	 St: c03e0000 Sz: 8192 	 Sm: 0 	 T: memcpy_h2d(1.890614)
F:  1556693----T:  1564473 	 St: c03e2000 Sz: 57344 	 Sm: 0 	 T: memcpy_h2d(5.253207)
F:  1564473----T:  1567273 	 St: c03f0000 Sz: 8192 	 Sm: 0 	 T: memcpy_h2d(1.890614)
F:  1567273----T:  1575053 	 St: c03f2000 Sz: 57344 	 Sm: 0 	 T: memcpy_h2d(5.253207)
F:  1575053----T:  1577658 	 St: c07d0000 Sz: 4096 	 Sm: 0 	 T: memcpy_h2d(1.758947)
F:  1577658----T:  1585898 	 St: c07d1000 Sz: 61440 	 Sm: 0 	 T: memcpy_h2d(5.563808)
F:  1585898----T:  1588503 	 St: c07e0000 Sz: 4096 	 Sm: 0 	 T: memcpy_h2d(1.758947)
F:  1588503----T:  1596743 	 St: c07e1000 Sz: 61440 	 Sm: 0 	 T: memcpy_h2d(5.563808)
F:  1596743----T:  1599348 	 St: c07f0000 Sz: 4096 	 Sm: 0 	 T: memcpy_h2d(1.758947)
F:  1599348----T:  1607588 	 St: c07f1000 Sz: 61440 	 Sm: 0 	 T: memcpy_h2d(5.563808)
F:  1610414----T:  1613019 	 St: 0 Sz: 4096 	 Sm: 0 	 T: device_sync(1.758947)
F:  1610414----T:  1618654 	 St: 0 Sz: 61440 	 Sm: 0 	 T: device_sync(5.563808)
F:  1621259----T:  1623864 	 St: 0 Sz: 4096 	 Sm: 0 	 T: device_sync(1.758947)
F:  1621259----T:  1629499 	 St: 0 Sz: 61440 	 Sm: 0 	 T: device_sync(5.563808)
F:  1632104----T:  1634709 	 St: 0 Sz: 4096 	 Sm: 0 	 T: device_sync(1.758947)
F:  1632104----T:  1647799 	 St: 0 Sz: 126976 	 Sm: 0 	 T: device_sync(10.597569)
F:  1650404----T:  1653009 	 St: 0 Sz: 4096 	 Sm: 0 	 T: device_sync(1.758947)
F:  1650404----T:  1681127 	 St: 0 Sz: 258048 	 Sm: 0 	 T: device_sync(20.744766)
F:  1683732----T:  1686337 	 St: 0 Sz: 4096 	 Sm: 0 	 T: device_sync(1.758947)
F:  1683732----T:  1744568 	 St: 0 Sz: 520192 	 Sm: 0 	 T: device_sync(41.077652)
F:  1747173----T:  1749778 	 St: 0 Sz: 4096 	 Sm: 0 	 T: device_sync(1.758947)
F:  1747173----T:  1868262 	 St: 0 Sz: 1044480 	 Sm: 0 	 T: device_sync(81.761650)
F:  1870867----T:  1873472 	 St: 0 Sz: 4096 	 Sm: 0 	 T: device_sync(1.758947)
F:  1870867----T:  1879107 	 St: 0 Sz: 61440 	 Sm: 0 	 T: device_sync(5.563808)
F:  1881712----T:  1884317 	 St: 0 Sz: 4096 	 Sm: 0 	 T: device_sync(1.758947)
F:  1881712----T:  1889952 	 St: 0 Sz: 61440 	 Sm: 0 	 T: device_sync(5.563808)
F:  1892557----T:  1895162 	 St: 0 Sz: 4096 	 Sm: 0 	 T: device_sync(1.758947)
F:  1892557----T:  1908252 	 St: 0 Sz: 126976 	 Sm: 0 	 T: device_sync(10.597569)
F:  1910857----T:  1913462 	 St: 0 Sz: 4096 	 Sm: 0 	 T: device_sync(1.758947)
F:  1910857----T:  1941580 	 St: 0 Sz: 258048 	 Sm: 0 	 T: device_sync(20.744766)
F:  1944185----T:  1946790 	 St: 0 Sz: 4096 	 Sm: 0 	 T: device_sync(1.758947)
F:  1944185----T:  2005021 	 St: 0 Sz: 520192 	 Sm: 0 	 T: device_sync(41.077652)
F:  2007626----T:  2010231 	 St: 0 Sz: 4096 	 Sm: 0 	 T: device_sync(1.758947)
F:  2007626----T:  2127774 	 St: 0 Sz: 1036288 	 Sm: 0 	 T: device_sync(81.126266)
Tot_prefetch_time: 0(cycle), 0.000000(us)
Tot_kernel_exec_time: 1388264(cycle), 937.382874(us)
Tot_kernel_exec_time_and_fault_time: 9918824(cycle), 6697.382812(us)
Tot_memcpy_h2d_time: 1369775(cycle), 924.898743(us)
Tot_memcpy_d2h_time: 0(cycle), 0.000000(us)
Tot_memcpy_time: 1369775(cycle), 924.898743(us)
Tot_devicesync_time: 519965(cycle), 351.090485(us)
Tot_writeback_time: 0(cycle), 0.000000(us)
Tot_dma_time: 0(cycle), 0.000000(us)
Tot_memcpy_d2h_sync_wb_time: 519965(cycle), 351.090485(us)
GPGPU-Sim: *** exit detected ***
