

        *** GPGPU-Sim Simulator Version 3.2.2  [build gpgpu-sim_git-commit-c46ada6511a85df09b4a05ed1260f0ff10279dc1_modified_597] ***


GPGPU-Sim PTX: simulation mode 0 (can change with PTX_SIM_MODE_FUNC environment variable:
               1=functional simulation only, 0=detailed performance simulator)
GPGPU-Sim: Configuration options:

-network_mode                           1 # Interconnection network mode
-inter_config_file   config_fermi_islip.icnt # Interconnection network config file
-gpgpu_ptx_use_cuobjdump                    1 # Use cuobjdump to extract ptx and sass from binaries
-gpgpu_experimental_lib_support                    0 # Try to extract code from cuda libraries [Broken because of unknown cudaGetExportTable]
-gpgpu_ptx_convert_to_ptxplus                    0 # Convert SASS (native ISA) to ptxplus and run ptxplus
-gpgpu_ptx_force_max_capability                   20 # Force maximum compute capability
-gpgpu_ptx_inst_debug_to_file                    0 # Dump executed instructions' debug information to file
-gpgpu_ptx_inst_debug_file       inst_debug.txt # Executed instructions' debug output file
-gpgpu_ptx_inst_debug_thread_uid                    1 # Thread UID for executed instructions' debug output
-gpgpu_simd_model                       1 # 1 = post-dominator
-gpgpu_shader_core_pipeline              2048:32 # shader core pipeline config, i.e., {<nthread>:<warpsize>}
-gpgpu_tex_cache:l1  16:128:24,L:R:m:N:L,F:128:4,128:2 # per-shader L1 texture cache  (READ-ONLY) config  {<nsets>:<bsize>:<assoc>,<rep>:<wr>:<alloc>:<wr_alloc>,<mshr>:<N>:<merge>,<mq>:<rf>}
-gpgpu_const_cache:l1 128:64:2,L:R:f:N:L,A:2:64,4 # per-shader L1 constant memory cache  (READ-ONLY) config  {<nsets>:<bsize>:<assoc>,<rep>:<wr>:<alloc>:<wr_alloc>,<mshr>:<N>:<merge>,<mq>} 
-gpgpu_cache:il1     8:128:4,L:R:f:N:L,A:2:48,4 # shader L1 instruction cache config  {<nsets>:<bsize>:<assoc>,<rep>:<wr>:<alloc>:<wr_alloc>,<mshr>:<N>:<merge>,<mq>} 
-gpgpu_cache:dl1     64:128:6,L:L:m:N:H,A:128:8,8 # per-shader L1 data cache config  {<nsets>:<bsize>:<assoc>,<rep>:<wr>:<alloc>:<wr_alloc>,<mshr>:<N>:<merge>,<mq> | none}
-gpgpu_cache:dl1PrefL1                 none # per-shader L1 data cache config  {<nsets>:<bsize>:<assoc>,<rep>:<wr>:<alloc>:<wr_alloc>,<mshr>:<N>:<merge>,<mq> | none}
-gpgpu_cache:dl1PrefShared                 none # per-shader L1 data cache config  {<nsets>:<bsize>:<assoc>,<rep>:<wr>:<alloc>:<wr_alloc>,<mshr>:<N>:<merge>,<mq> | none}
-gmem_skip_L1D                          1 # global memory access skip L1D cache (implements -Xptxas -dlcm=cg, default=no skip)
-gpgpu_perfect_mem                      0 # enable perfect memory mode (no cache miss)
-n_regfile_gating_group                    4 # group of lanes that should be read/written together)
-gpgpu_clock_gated_reg_file                    0 # enable clock gated reg file for power calculations
-gpgpu_clock_gated_lanes                    0 # enable clock gated lanes for power calculations
-gpgpu_shader_registers                65536 # Number of registers per shader core. Limits number of concurrent CTAs. (default 8192)
-gpgpu_shader_cta                      32 # Maximum number of concurrent CTAs in shader (default 8)
-gpgpu_num_cta_barriers                   16 # Maximum number of named barriers per CTA (default 16)
-gpgpu_n_clusters                      28 # number of processing clusters
-gpgpu_n_cores_per_cluster                    1 # number of simd cores per cluster
-gpgpu_n_cluster_ejection_buffer_size                    8 # number of packets in ejection buffer
-gpgpu_n_ldst_response_buffer_size                    2 # number of response packets in ld/st unit ejection buffer
-gpgpu_shmem_size                   16384 # Size of shared memory per shader core (default 16kB)
-gpgpu_shmem_size                   98304 # Size of shared memory per shader core (default 16kB)
-gpgpu_shmem_size_PrefL1                16384 # Size of shared memory per shader core (default 16kB)
-gpgpu_shmem_size_PrefShared                16384 # Size of shared memory per shader core (default 16kB)
-gpgpu_shmem_num_banks                   32 # Number of banks in the shared memory in each shader core (default 16)
-gpgpu_shmem_limited_broadcast                    0 # Limit shared memory to do one broadcast per cycle (default on)
-gpgpu_shmem_warp_parts                    1 # Number of portions a warp is divided into for shared memory bank conflict check 
-gpgpu_warpdistro_shader                   -1 # Specify which shader core to collect the warp size distribution from
-gpgpu_warp_issue_shader                    0 # Specify which shader core to collect the warp issue distribution from
-gpgpu_local_mem_map                    1 # Mapping from local memory space address to simulated GPU physical address space (default = enabled)
-gpgpu_num_reg_banks                   32 # Number of register banks (default = 8)
-gpgpu_reg_bank_use_warp_id                    0 # Use warp ID in mapping registers to banks (default = off)
-gpgpu_operand_collector_num_units_sp                   20 # number of collector units (default = 4)
-gpgpu_operand_collector_num_units_sfu                    4 # number of collector units (default = 4)
-gpgpu_operand_collector_num_units_mem                    8 # number of collector units (default = 2)
-gpgpu_operand_collector_num_units_gen                    0 # number of collector units (default = 0)
-gpgpu_operand_collector_num_in_ports_sp                    4 # number of collector unit in ports (default = 1)
-gpgpu_operand_collector_num_in_ports_sfu                    1 # number of collector unit in ports (default = 1)
-gpgpu_operand_collector_num_in_ports_mem                    1 # number of collector unit in ports (default = 1)
-gpgpu_operand_collector_num_in_ports_gen                    0 # number of collector unit in ports (default = 0)
-gpgpu_operand_collector_num_out_ports_sp                    4 # number of collector unit in ports (default = 1)
-gpgpu_operand_collector_num_out_ports_sfu                    1 # number of collector unit in ports (default = 1)
-gpgpu_operand_collector_num_out_ports_mem                    1 # number of collector unit in ports (default = 1)
-gpgpu_operand_collector_num_out_ports_gen                    0 # number of collector unit in ports (default = 0)
-gpgpu_coalesce_arch                   13 # Coalescing arch (default = 13, anything else is off for now)
-gpgpu_num_sched_per_core                    2 # Number of warp schedulers per core
-gpgpu_max_insn_issue_per_warp                    2 # Max number of instructions that can be issued per warp in one cycle by scheduler
-gpgpu_simt_core_sim_order                    1 # Select the simulation order of cores in a cluster (0=Fix, 1=Round-Robin)
-gpgpu_pipeline_widths        4,1,1,4,1,1,6 # Pipeline widths ID_OC_SP,ID_OC_SFU,ID_OC_MEM,OC_EX_SP,OC_EX_SFU,OC_EX_MEM,EX_WB
-gpgpu_num_sp_units                     4 # Number of SP units (default=1)
-gpgpu_num_sfu_units                    1 # Number of SF units (default=1)
-gpgpu_num_mem_units                    1 # Number if ldst units (default=1) WARNING: not hooked up to anything
-gpgpu_scheduler                      gto # Scheduler configuration: < lrr | gto | two_level_active > If two_level_active:<num_active_warps>:<inner_prioritization>:<outer_prioritization>For complete list of prioritization values see shader.h enum scheduler_prioritization_typeDefault: gto
-gpgpu_concurrent_kernel_sm                    0 # Support concurrent kernels on a SM (default = disabled)
-tlb_size                              16 # Number of tlb entries per SM.
-gpgpu_dram_scheduler                    1 # 0 = fifo, 1 = FR-FCFS (defaul)
-gpgpu_dram_partition_queues              8:8:8:8 # i2$:$2d:d2$:$2i
-l2_ideal                               0 # Use a ideal L2 cache that always hit
-gpgpu_cache:dl2     64:128:16,L:B:m:W:L,A:1024:1024,4:0,32 # unified banked L2 data cache config  {<nsets>:<bsize>:<assoc>,<rep>:<wr>:<alloc>:<wr_alloc>,<mshr>:<N>:<merge>,<mq>}
-gpgpu_cache:dl2_texture_only                    0 # L2 cache used for texture only
-gpgpu_n_mem                            4 # number of memory modules (e.g. memory controllers) in gpu
-gpgpu_n_sub_partition_per_mchannel                    2 # number of memory subpartition in each memory module
-gpgpu_n_mem_per_ctrlr                    1 # number of memory chips per memory controller
-gpgpu_memlatency_stat                   14 # track and display latency statistics 0x2 enables MC, 0x4 enables queue logs
-gpgpu_frfcfs_dram_sched_queue_size                   64 # 0 = unlimited (default); # entries per chip
-gpgpu_dram_return_queue_size                  116 # 0 = unlimited (default); # entries per chip
-gpgpu_dram_buswidth                    4 # default = 4 bytes (8 bytes per cycle at DDR)
-gpgpu_dram_burst_length                    8 # Burst length of each DRAM request (default = 4 data bus cycle)
-dram_data_command_freq_ratio                    4 # Frequency ratio between DRAM data bus and command bus (default = 2 times, i.e. DDR)
-gpgpu_dram_timing_opt nbk=16:CCD=2:RRD=6:RCD=12:RAS=28:RP=12:RC=40: CL=12:WL=4:CDLR=5:WR=12:nbkgrp=1:CCDL=0:RTPL=0 # DRAM timing parameters = {nbk:tCCD:tRRD:tRCD:tRAS:tRP:tRC:CL:WL:tCDLR:tWR:nbkgrp:tCCDL:tRTPL}
-rop_latency                          120 # ROP queue latency (default 85)
-dram_latency                         100 # DRAM latency (default 30)
-gpgpu_mem_addr_mapping dramid@8;00000000.00000000.00000000.00000000.0000RRRR.RRRRRRRR.RBBBCCCC.BCCSSSSS # mapping memory address to dram model {dramid@<start bit>;<memory address map>}
-gpgpu_mem_addr_test                    0 # run sweep test to check address mapping for aliased address
-gpgpu_mem_address_mask                    1 # 0 = old addressing mask, 1 = new addressing mask, 2 = new add. mask + flipped bank sel and chip sel bits
-gpuwattch_xml_file  gpuwattch_geforcegtx1080ti.xml # GPUWattch XML file
-power_simulation_enabled                    1 # Turn on power simulator (1=On, 0=Off)
-power_per_cycle_dump                    0 # Dump detailed power output each cycle
-power_trace_enabled                    0 # produce a file for the power trace (1=On, 0=Off)
-power_trace_zlevel                     6 # Compression level of the power trace output log (0=no comp, 9=highest)
-steady_power_levels_enabled                    0 # produce a file for the steady power levels (1=On, 0=Off)
-steady_state_definition                  8:4 # allowed deviation:number of samples
-gpgpu_max_cycle                        0 # terminates gpu simulation early (0 = no limit)
-gpgpu_max_insn                         0 # terminates gpu simulation early (0 = no limit)
-gpgpu_max_cta                          0 # terminates gpu simulation early (0 = no limit)
-gpgpu_runtime_stat                   500 # display runtime statistics such as dram utilization {<freq>:<flag>}
-liveness_message_freq                    1 # Minimum number of seconds between simulation liveness messages (0 = always print)
-gpgpu_flush_l1_cache                    0 # Flush L1 cache at the end of each kernel call
-gpgpu_flush_l2_cache                    0 # Flush L2 cache at the end of each kernel call
-gpgpu_deadlock_detect                    0 # Stop the simulation at deadlock (1=on (default), 0=off)
-gpgpu_ptx_instruction_classification                    0 # if enabled will classify ptx instruction types per kernel (Max 255 kernels now)
-gpgpu_ptx_sim_mode                     0 # Select between Performance (default) or Functional simulation (1)
-gpgpu_clock_domains 1481.0:2962.0:1481.0:2750.0 # Clock Domain Frequencies in MhZ {<Core Clock>:<ICNT Clock>:<L2 Clock>:<DRAM Clock>}
-gpgpu_max_concurrent_kernel                    8 # maximum kernels that can run concurrently on GPU
-gpgpu_cflog_interval                    0 # Interval between each snapshot in control flow logger
-visualizer_enabled                     0 # Turn on visualizer output (1=On, 0=Off)
-visualizer_outputfile                 NULL # Specifies the output log file for visualizer
-visualizer_zlevel                      6 # Compression level of the visualizer output log (0=no comp, 9=highest)
-trace_enabled                          0 # Turn on traces
-trace_components                    none # comma seperated list of traces to enable. Complete list found in trace_streams.tup. Default none
-trace_sampling_core                    0 # The core which is printed using CORE_DPRINTF. Default 0
-trace_sampling_memory_partition                   -1 # The memory partition which is printed using MEMPART_DPRINTF. Default -1 (i.e. all)
-gddr_size                          256MB # Size of GDDR in MB/GB.(GLOBAL_HEAP_START, GLOBAL_HEAP_START + gddr_size) would be used for unmanged memory, (GLOBAL_HEAP_START + gddr_size, GLOBAL_HEAP_START + gddr_size*2) would be used for managed memory. 
-page_table_walk_latency                  100 # Average page table walk latency (in core cycle).
-eviction_policy                        5 # Select page eviction policy
-invalidate_clean                       0 # Should directly invalidate clean pages
-reserve_accessed_page_percent                    0 # Percentage of accessed pages reserved from eviction in hope that they will be accessed in next iteration.
-percentage_of_free_page_buffer                    0 # Percentage of free page buffer to trigger the page eviction.
-page_size                            4KB # GDDR page size, only 4KB/2MB avaliable.
-pcie_bandwidth                  16.0GB/s # PCI-e bandwidth per direction, in GB/s.
-enable_dma                             0 # Enable direct access to CPU memory
-multiply_dma_penalty                    2 # Oversubscription Multiplicative Penalty Factor for Adaptive DMA
-migrate_threshold                      8 # Access counter threshold for migrating the page from cpu to gpu
-sim_prof_enable                        1 # Enable gpgpu-sim profiler
-hardware_prefetch                      2 # Select gpgpu-sim hardware prefetcher
-hwprefetch_oversub                     2 # Select gpgpu-sim hardware prefetcher under over-subscription
-page_fault_latency                 66645 # Average fault latency (in core cycle).
-enable_accurate_simulation                    0 # Enable page fault functional simulation.
-enable_smart_runtime                    0 # Enable access pattern detection, policy engine, and adaptive memory management.
-enable_ptx_file_line_stats                    1 # Turn on PTX source line statistic profiling. (1 = On)
-ptx_line_stats_filename gpgpu_inst_stats.txt # Output file for PTX source line statistics.
-gpgpu_kernel_launch_latency               222150 # Kernel launch latency in cycles. Default: 0
-gpgpu_cdp_enabled                      0 # Turn on CDP
-save_embedded_ptx                      0 # saves ptx files embedded in binary as <n>.ptx
-keep                                   0 # keep intermediate files created by GPGPU-Sim when interfacing with external programs
-gpgpu_ptx_save_converted_ptxplus                    0 # Saved converted ptxplus to a file
-ptx_opcode_latency_int         4,13,4,5,145 # Opcode latencies for integers <ADD,MAX,MUL,MAD,DIV>Default 1,1,19,25,145
-ptx_opcode_latency_fp          4,13,4,5,39 # Opcode latencies for single precision floating points <ADD,MAX,MUL,MAD,DIV>Default 1,1,1,1,30
-ptx_opcode_latency_dp         8,19,8,8,330 # Opcode latencies for double precision floating points <ADD,MAX,MUL,MAD,DIV>Default 8,8,8,8,335
-ptx_opcode_initiation_int            1,2,2,2,8 # Opcode initiation intervals for integers <ADD,MAX,MUL,MAD,DIV>Default 1,1,4,4,32
-ptx_opcode_initiation_fp            1,2,1,1,4 # Opcode initiation intervals for single precision floating points <ADD,MAX,MUL,MAD,DIV>Default 1,1,1,1,5
-ptx_opcode_initiation_dp          1,2,1,1,130 # Opcode initiation intervals for double precision floating points <ADD,MAX,MUL,MAD,DIV>Default 8,8,8,8,130
-cdp_latency         7200,8000,100,12000,1600 # CDP API latency <cudaStreamCreateWithFlags, cudaGetParameterBufferV2_init_perWarp, cudaGetParameterBufferV2_perKernel, cudaLaunchDeviceV2_init_perWarp, cudaLaunchDevicV2_perKernel>Default 7200,8000,100,12000,1600
DRAM Timing Options:
nbk                                    16 # number of banks
CCD                                     2 # column to column delay
RRD                                     6 # minimal delay between activation of rows in different banks
RCD                                    12 # row to column delay
RAS                                    28 # time needed to activate row
RP                                     12 # time needed to precharge (deactivate) row
RC                                     40 # row cycle time
CDLR                                    5 # switching from write to read (changes tWTR)
WR                                     12 # last data-in to row precharge
CL                                     12 # CAS latency
WL                                      4 # Write latency
nbkgrp                                  1 # number of bank groups
CCDL                                    0 # column to column delay between accesses to different bank groups
RTPL                                    0 # read to precharge delay between accesses to different bank groups
Total number of memory sub partition = 8
addr_dec_mask[CHIP]  = 0000000000000300 	high:10 low:8
addr_dec_mask[BK]    = 000000000001c080 	high:17 low:7
addr_dec_mask[ROW]   = 000000003ffe0000 	high:30 low:17
addr_dec_mask[COL]   = 0000000000003c7f 	high:14 low:0
addr_dec_mask[BURST] = 000000000000001f 	high:5 low:0
sub_partition_id_mask = 0000000000000080
GPGPU-Sim uArch: clock freqs: 1481000000.000000:2962000000.000000:1481000000.000000:2750000000.000000
GPGPU-Sim uArch: clock periods: 0.00000000067521944632:0.00000000033760972316:0.00000000067521944632:0.00000000036363636364
*** Initializing Memory Statistics ***
GPGPU-Sim uArch: interconnect node map (shaderID+MemID to icntID)
GPGPU-Sim uArch: Memory nodes ID start from index: 28
GPGPU-Sim uArch:    0   1   2   3   4   5   6
GPGPU-Sim uArch:    7   8   9  10  11  12  13
GPGPU-Sim uArch:   14  15  16  17  18  19  20
GPGPU-Sim uArch:   21  22  23  24  25  26  27
GPGPU-Sim uArch:   28  29  30  31  32  33  34
GPGPU-Sim uArch:   35  36  37  38  39  40  41
GPGPU-Sim uArch:   42  43  44  45  46  47  48
GPGPU-Sim uArch:   49
GPGPU-Sim uArch: interconnect node reverse map (icntID to shaderID+MemID)
GPGPU-Sim uArch: Memory nodes start from ID: 28
GPGPU-Sim uArch:    0   1   2   3   4   5   6
GPGPU-Sim uArch:    7   8   9  10  11  12  13
GPGPU-Sim uArch:   14  15  16  17  18  19  20
GPGPU-Sim uArch:   21  22  23  24  25  26  27
GPGPU-Sim uArch:   28  29  30  31  32  33  34
GPGPU-Sim uArch:   35  36  37  38  39  40  41
GPGPU-Sim uArch:   42  43  44  45  46  47  48
GPGPU-Sim uArch:   49
4990f695667089e7342a1308b43385d5  /root/uvmsmart/benchmarks/Managed/ATAX/atax
GPGPU-Sim uArch: performance model initialization complete.
GPGPU-Sim PTX: __cudaRegisterFatBinary, fat_cubin_handle = 1, filename=default
self exe links to: /root/uvmsmart/benchmarks/Managed/ATAX/atax
Running md5sum using "md5sum /root/uvmsmart/benchmarks/Managed/ATAX/atax "
Parsing file _cuobjdump_complete_output_OLyFh1
######### cuobjdump parser ########
## Adding new section ELF
Adding arch: sm_20
Adding identifier: default
## Adding new section ELF
Adding arch: sm_20
Adding identifier: default
## Adding new section PTX
Adding ptx filename: _cuobjdump_1.ptx
Adding arch: sm_20
Adding identifier: default
Done parsing!!!
GPGPU-Sim PTX: __cudaRegisterFunction _Z12atax_kernel2PfS_S_ : hostFun 0x0x4010a2, fat_cubin_handle = 1
GPGPU-Sim PTX: instruction assembly for function '_Z12atax_kernel1PfS_S_'...   done.
GPGPU-Sim PTX: finding reconvergence points for '_Z12atax_kernel1PfS_S_'...
GPGPU-Sim PTX: Finding dominators for '_Z12atax_kernel1PfS_S_'...
GPGPU-Sim PTX: Finding immediate dominators for '_Z12atax_kernel1PfS_S_'...
GPGPU-Sim PTX: Finding postdominators for '_Z12atax_kernel1PfS_S_'...
GPGPU-Sim PTX: Finding immediate postdominators for '_Z12atax_kernel1PfS_S_'...
GPGPU-Sim PTX: pre-decoding instructions for '_Z12atax_kernel1PfS_S_'...
GPGPU-Sim PTX: reconvergence points for _Z12atax_kernel1PfS_S_...
GPGPU-Sim PTX:  1 (potential) branch divergence @  PC=0x040 (_1.ptx:34) @%p1 bra BB0_3;
GPGPU-Sim PTX:    immediate post dominator      @  PC=0x270 (_1.ptx:109) ret;
GPGPU-Sim PTX:  2 (potential) branch divergence @  PC=0x268 (_1.ptx:106) @%p2 bra BB0_2;
GPGPU-Sim PTX:    immediate post dominator      @  PC=0x270 (_1.ptx:109) ret;
GPGPU-Sim PTX: ... end of reconvergence points for _Z12atax_kernel1PfS_S_
GPGPU-Sim PTX: ... done pre-decoding instructions for '_Z12atax_kernel1PfS_S_'.
GPGPU-Sim PTX: instruction assembly for function '_Z12atax_kernel2PfS_S_'...   done.
GPGPU-Sim PTX: finding reconvergence points for '_Z12atax_kernel2PfS_S_'...
GPGPU-Sim PTX: Finding dominators for '_Z12atax_kernel2PfS_S_'...
GPGPU-Sim PTX: Finding immediate dominators for '_Z12atax_kernel2PfS_S_'...
GPGPU-Sim PTX: Finding postdominators for '_Z12atax_kernel2PfS_S_'...
GPGPU-Sim PTX: Finding immediate postdominators for '_Z12atax_kernel2PfS_S_'...
GPGPU-Sim PTX: pre-decoding instructions for '_Z12atax_kernel2PfS_S_'...
GPGPU-Sim PTX: reconvergence points for _Z12atax_kernel2PfS_S_...
GPGPU-Sim PTX:  1 (potential) branch divergence @  PC=0x2b8 (_1.ptx:133) @%p1 bra BB1_3;
GPGPU-Sim PTX:    immediate post dominator      @  PC=0x4b8 (_1.ptx:202) ret;
GPGPU-Sim PTX:  2 (potential) branch divergence @  PC=0x4b0 (_1.ptx:199) @%p2 bra BB1_2;
GPGPU-Sim PTX:    immediate post dominator      @  PC=0x4b8 (_1.ptx:202) ret;
GPGPU-Sim PTX: ... end of reconvergence points for _Z12atax_kernel2PfS_S_
GPGPU-Sim PTX: ... done pre-decoding instructions for '_Z12atax_kernel2PfS_S_'.
GPGPU-Sim PTX: finished parsing EMBEDDED .ptx file _1.ptx
Adding _cuobjdump_1.ptx with cubin handle 1
GPGPU-Sim PTX: extracting embedded .ptx to temporary file "_ptx_9Ixyrq"
Running: cat _ptx_9Ixyrq | sed 's/.version 1.5/.version 1.4/' | sed 's/, texmode_independent//' | sed 's/\(\.extern \.const\[1\] .b8 \w\+\)\[\]/\1\[1\]/' | sed 's/const\[.\]/const\[0\]/g' > _ptx2_IeIxBP
GPGPU-Sim PTX: generating ptxinfo using "$CUDA_INSTALL_PATH/bin/ptxas --gpu-name=sm_20 -v _ptx2_IeIxBP --output-file  /dev/null 2> _ptx_9Ixyrqinfo"
GPGPU-Sim PTX: Kernel '_Z12atax_kernel2PfS_S_' : regs=14, lmem=0, smem=0, cmem=56
GPGPU-Sim PTX: Kernel '_Z12atax_kernel1PfS_S_' : regs=19, lmem=0, smem=0, cmem=56
GPGPU-Sim PTX: removing ptxinfo using "rm -f _ptx_9Ixyrq _ptx2_IeIxBP _ptx_9Ixyrqinfo"
GPGPU-Sim PTX: loading globals with explicit initializers... 
GPGPU-Sim PTX: finished loading globals (0 bytes total).
GPGPU-Sim PTX: loading constants with explicit initializers...  done.
GPGPU-Sim PTX: __cudaRegisterFunction _Z12atax_kernel1PfS_S_ : hostFun 0x0x400fe3, fat_cubin_handle = 1

GPGPU-Sim PTX: cudaLaunch for 0x0x400fe3 (mode=performance simulation) on stream 0
GPGPU-Sim PTX: pushing kernel '_Z12atax_kernel1PfS_S_' to stream 0, gridDim= (5,1,1) blockDim = (256,1,1) 
GPGPU-Sim uArch: Shader 1 bind to kernel 1 '_Z12atax_kernel1PfS_S_'
GPGPU-Sim uArch: CTA/core = 8, limited by: threads
GPGPU-Sim uArch: Shader 2 bind to kernel 1 '_Z12atax_kernel1PfS_S_'
GPGPU-Sim uArch: Shader 3 bind to kernel 1 '_Z12atax_kernel1PfS_S_'
GPGPU-Sim uArch: Shader 4 bind to kernel 1 '_Z12atax_kernel1PfS_S_'
GPGPU-Sim uArch: Shader 5 bind to kernel 1 '_Z12atax_kernel1PfS_S_'
Destroy streams for kernel 1: size 0

GPGPU-Sim PTX: cudaLaunch for 0x0x4010a2 (mode=performance simulation) on stream 0
GPGPU-Sim PTX: pushing kernel '_Z12atax_kernel2PfS_S_' to stream 0, gridDim= (5,1,1) blockDim = (256,1,1) 
kernel_name = _Z12atax_kernel1PfS_S_ 
kernel_launch_uid = 1 
gpu_sim_cycle = 1461459
gpu_sim_insn = 6627200
gpu_ipc =       4.5346
gpu_tot_sim_cycle = 1683609
gpu_tot_sim_insn = 6627200
gpu_tot_ipc =       3.9363
gpu_tot_issued_cta = 5
max_total_param_size = 0
gpu_stall_dramfull = 545860
gpu_stall_icnt2sh    = 5868470
partiton_reqs_in_parallel = 11145812
partiton_reqs_in_parallel_total    = 0
partiton_level_parallism =       7.6265
partiton_level_parallism_total  =       6.6202
partiton_reqs_in_parallel_util = 11145812
partiton_reqs_in_parallel_util_total    = 0
gpu_sim_cycle_parition_util = 1461290
gpu_tot_sim_cycle_parition_util    = 0
partiton_level_parallism_util =       7.6274
partiton_level_parallism_util_total  =       7.6274
partiton_replys_in_parallel = 1531268
partiton_replys_in_parallel_total    = 0
L2_BW  =      99.3115 GB/Sec
L2_BW_total  =      86.2075 GB/Sec
gpu_total_sim_rate=1448

========= Core cache stats =========
L1I_cache:
	L1I_total_cache_accesses = 106868
	L1I_total_cache_misses = 94
	L1I_total_cache_miss_rate = 0.0009
	L1I_total_cache_pending_hits = 0
	L1I_total_cache_reservation_fails = 0
L1D_cache:
	L1D_cache_core[0]: Access = 0, Miss = 0, Miss_rate = -nan, Pending_hits = 0, Reservation_fails = 0
	L1D_cache_core[1]: Access = 0, Miss = 0, Miss_rate = -nan, Pending_hits = 0, Reservation_fails = 0
	L1D_cache_core[2]: Access = 0, Miss = 0, Miss_rate = -nan, Pending_hits = 0, Reservation_fails = 0
	L1D_cache_core[3]: Access = 0, Miss = 0, Miss_rate = -nan, Pending_hits = 0, Reservation_fails = 0
	L1D_cache_core[4]: Access = 0, Miss = 0, Miss_rate = -nan, Pending_hits = 0, Reservation_fails = 0
	L1D_cache_core[5]: Access = 0, Miss = 0, Miss_rate = -nan, Pending_hits = 0, Reservation_fails = 0
	L1D_cache_core[6]: Access = 0, Miss = 0, Miss_rate = -nan, Pending_hits = 0, Reservation_fails = 0
	L1D_cache_core[7]: Access = 0, Miss = 0, Miss_rate = -nan, Pending_hits = 0, Reservation_fails = 0
	L1D_cache_core[8]: Access = 0, Miss = 0, Miss_rate = -nan, Pending_hits = 0, Reservation_fails = 0
	L1D_cache_core[9]: Access = 0, Miss = 0, Miss_rate = -nan, Pending_hits = 0, Reservation_fails = 0
	L1D_cache_core[10]: Access = 0, Miss = 0, Miss_rate = -nan, Pending_hits = 0, Reservation_fails = 0
	L1D_cache_core[11]: Access = 0, Miss = 0, Miss_rate = -nan, Pending_hits = 0, Reservation_fails = 0
	L1D_cache_core[12]: Access = 0, Miss = 0, Miss_rate = -nan, Pending_hits = 0, Reservation_fails = 0
	L1D_cache_core[13]: Access = 0, Miss = 0, Miss_rate = -nan, Pending_hits = 0, Reservation_fails = 0
	L1D_cache_core[14]: Access = 0, Miss = 0, Miss_rate = -nan, Pending_hits = 0, Reservation_fails = 0
	L1D_cache_core[15]: Access = 0, Miss = 0, Miss_rate = -nan, Pending_hits = 0, Reservation_fails = 0
	L1D_cache_core[16]: Access = 0, Miss = 0, Miss_rate = -nan, Pending_hits = 0, Reservation_fails = 0
	L1D_cache_core[17]: Access = 0, Miss = 0, Miss_rate = -nan, Pending_hits = 0, Reservation_fails = 0
	L1D_cache_core[18]: Access = 0, Miss = 0, Miss_rate = -nan, Pending_hits = 0, Reservation_fails = 0
	L1D_cache_core[19]: Access = 0, Miss = 0, Miss_rate = -nan, Pending_hits = 0, Reservation_fails = 0
	L1D_cache_core[20]: Access = 0, Miss = 0, Miss_rate = -nan, Pending_hits = 0, Reservation_fails = 0
	L1D_cache_core[21]: Access = 0, Miss = 0, Miss_rate = -nan, Pending_hits = 0, Reservation_fails = 0
	L1D_cache_core[22]: Access = 0, Miss = 0, Miss_rate = -nan, Pending_hits = 0, Reservation_fails = 0
	L1D_cache_core[23]: Access = 0, Miss = 0, Miss_rate = -nan, Pending_hits = 0, Reservation_fails = 0
	L1D_cache_core[24]: Access = 0, Miss = 0, Miss_rate = -nan, Pending_hits = 0, Reservation_fails = 0
	L1D_cache_core[25]: Access = 0, Miss = 0, Miss_rate = -nan, Pending_hits = 0, Reservation_fails = 0
	L1D_cache_core[26]: Access = 0, Miss = 0, Miss_rate = -nan, Pending_hits = 0, Reservation_fails = 0
	L1D_cache_core[27]: Access = 0, Miss = 0, Miss_rate = -nan, Pending_hits = 0, Reservation_fails = 0
	L1D_total_cache_accesses = 0
	L1D_total_cache_misses = 0
	L1D_total_cache_pending_hits = 0
	L1D_total_cache_reservation_fails = 0
	L1D_cache_data_port_util = 0.000
	L1D_cache_fill_port_util = 0.000
L1C_cache:
	L1C_total_cache_accesses = 120
	L1C_total_cache_misses = 120
	L1C_total_cache_miss_rate = 1.0000
	L1C_total_cache_pending_hits = 0
	L1C_total_cache_reservation_fails = 0
L1T_cache:
	L1T_total_cache_accesses = 0
	L1T_total_cache_misses = 0
	L1T_total_cache_pending_hits = 0
	L1T_total_cache_reservation_fails = 0

Total_core_cache_stats:
	Total_core_cache_stats_breakdown[GLOBAL_ACC_R][HIT] = 0
	Total_core_cache_stats_breakdown[GLOBAL_ACC_R][HIT_RESERVED] = 0
	Total_core_cache_stats_breakdown[GLOBAL_ACC_R][MISS] = 0
	Total_core_cache_stats_breakdown[GLOBAL_ACC_R][RESERVATION_FAIL] = 0
	Total_core_cache_stats_breakdown[LOCAL_ACC_R][HIT] = 0
	Total_core_cache_stats_breakdown[LOCAL_ACC_R][HIT_RESERVED] = 0
	Total_core_cache_stats_breakdown[LOCAL_ACC_R][MISS] = 0
	Total_core_cache_stats_breakdown[LOCAL_ACC_R][RESERVATION_FAIL] = 0
	Total_core_cache_stats_breakdown[CONST_ACC_R][HIT] = 0
	Total_core_cache_stats_breakdown[CONST_ACC_R][HIT_RESERVED] = 0
	Total_core_cache_stats_breakdown[CONST_ACC_R][MISS] = 120
	Total_core_cache_stats_breakdown[CONST_ACC_R][RESERVATION_FAIL] = 0
	Total_core_cache_stats_breakdown[TEXTURE_ACC_R][HIT] = 0
	Total_core_cache_stats_breakdown[TEXTURE_ACC_R][HIT_RESERVED] = 0
	Total_core_cache_stats_breakdown[TEXTURE_ACC_R][MISS] = 0
	Total_core_cache_stats_breakdown[TEXTURE_ACC_R][RESERVATION_FAIL] = 0
	Total_core_cache_stats_breakdown[GLOBAL_ACC_W][HIT] = 0
	Total_core_cache_stats_breakdown[GLOBAL_ACC_W][HIT_RESERVED] = 0
	Total_core_cache_stats_breakdown[GLOBAL_ACC_W][MISS] = 0
	Total_core_cache_stats_breakdown[GLOBAL_ACC_W][RESERVATION_FAIL] = 0
	Total_core_cache_stats_breakdown[LOCAL_ACC_W][HIT] = 0
	Total_core_cache_stats_breakdown[LOCAL_ACC_W][HIT_RESERVED] = 0
	Total_core_cache_stats_breakdown[LOCAL_ACC_W][MISS] = 0
	Total_core_cache_stats_breakdown[LOCAL_ACC_W][RESERVATION_FAIL] = 0
	Total_core_cache_stats_breakdown[L1_WRBK_ACC][HIT] = 0
	Total_core_cache_stats_breakdown[L1_WRBK_ACC][HIT_RESERVED] = 0
	Total_core_cache_stats_breakdown[L1_WRBK_ACC][MISS] = 0
	Total_core_cache_stats_breakdown[L1_WRBK_ACC][RESERVATION_FAIL] = 0
	Total_core_cache_stats_breakdown[L2_WRBK_ACC][HIT] = 0
	Total_core_cache_stats_breakdown[L2_WRBK_ACC][HIT_RESERVED] = 0
	Total_core_cache_stats_breakdown[L2_WRBK_ACC][MISS] = 0
	Total_core_cache_stats_breakdown[L2_WRBK_ACC][RESERVATION_FAIL] = 0
	Total_core_cache_stats_breakdown[INST_ACC_R][HIT] = 106774
	Total_core_cache_stats_breakdown[INST_ACC_R][HIT_RESERVED] = 0
	Total_core_cache_stats_breakdown[INST_ACC_R][MISS] = 94
	Total_core_cache_stats_breakdown[INST_ACC_R][RESERVATION_FAIL] = 0
	Total_core_cache_stats_breakdown[L1_WR_ALLOC_R][HIT] = 0
	Total_core_cache_stats_breakdown[L1_WR_ALLOC_R][HIT_RESERVED] = 0
	Total_core_cache_stats_breakdown[L1_WR_ALLOC_R][MISS] = 0
	Total_core_cache_stats_breakdown[L1_WR_ALLOC_R][RESERVATION_FAIL] = 0
	Total_core_cache_stats_breakdown[L2_WR_ALLOC_R][HIT] = 0
	Total_core_cache_stats_breakdown[L2_WR_ALLOC_R][HIT_RESERVED] = 0
	Total_core_cache_stats_breakdown[L2_WR_ALLOC_R][MISS] = 0
	Total_core_cache_stats_breakdown[L2_WR_ALLOC_R][RESERVATION_FAIL] = 0
	Total_core_cache_stats_breakdown[CONST_ACC_R][TOTAL_ACCESS] = 120
	Total_core_cache_stats_breakdown[INST_ACC_R][TOTAL_ACCESS] = 106868
Shader 0 warp_id issue ditsribution:
warp_id:

distro:

gpgpu_n_tot_thrd_icount = 6717824
gpgpu_n_tot_w_icount = 209932
gpgpu_n_stall_shd_mem = 1465908
gpgpu_n_mem_read_local = 0
gpgpu_n_mem_write_local = 0
gpgpu_n_mem_read_global = 1485638
gpgpu_n_mem_write_global = 45600
gpgpu_n_mem_texture = 0
gpgpu_n_mem_const = 5
gpgpu_n_load_insn  = 2881200
gpgpu_n_store_insn = 1440000
gpgpu_n_shmem_insn = 0
gpgpu_n_tex_insn = 0
gpgpu_n_const_mem_insn = 0
gpgpu_n_param_mem_insn = 3840
gpgpu_n_shmem_bkconflict = 0
gpgpu_n_cache_bkconflict = 0
gpgpu_n_intrawarp_mshr_merge = 0
gpgpu_n_cmem_portconflict = 0
gpgpu_stall_shd_mem[c_mem][bk_conf] = 0
gpgpu_stall_shd_mem[c_mem][mshr_rc] = 0
gpgpu_stall_shd_mem[c_mem][icnt_rc] = 0
gpgpu_stall_shd_mem[c_mem][data_port_stall] = 0
gpgpu_stall_shd_mem[t_mem][mshr_rc] = 0
gpgpu_stall_shd_mem[t_mem][icnt_rc] = 0
gpgpu_stall_shd_mem[t_mem][data_port_stall] = 0
gpgpu_stall_shd_mem[s_mem][bk_conf] = 0
gpgpu_stall_shd_mem[gl_mem][bk_conf] = 0
gpgpu_stall_shd_mem[gl_mem][coal_stall] = 1401495
gpgpu_stall_shd_mem[gl_mem][data_port_stall] = 0
gpgpu_stall_shd_mem[g_mem_ld][mshr_rc] = 0
gpgpu_stall_shd_mem[g_mem_ld][icnt_rc] = 64413
gpgpu_stall_shd_mem[g_mem_ld][wb_icnt_rc] = 0
gpgpu_stall_shd_mem[g_mem_ld][wb_rsrv_fail] = 0
gpgpu_stall_shd_mem[g_mem_st][mshr_rc] = 0
gpgpu_stall_shd_mem[g_mem_st][icnt_rc] = 0
gpgpu_stall_shd_mem[g_mem_st][wb_icnt_rc] = 0
gpgpu_stall_shd_mem[g_mem_st][wb_rsrv_fail] = 0
gpgpu_stall_shd_mem[l_mem_ld][mshr_rc] = 0
gpgpu_stall_shd_mem[l_mem_ld][icnt_rc] = 0
gpgpu_stall_shd_mem[l_mem_ld][wb_icnt_rc] = 0
gpgpu_stall_shd_mem[l_mem_ld][wb_rsrv_fail] = 0
gpgpu_stall_shd_mem[l_mem_st][mshr_rc] = 0
gpgpu_stall_shd_mem[l_mem_st][icnt_rc] = 0
gpgpu_stall_shd_mem[l_mem_ld][wb_icnt_rc] = 0
gpgpu_stall_shd_mem[l_mem_ld][wb_rsrv_fail] = 0
gpu_reg_bank_conflict_stalls = 0
Warp Occupancy Distribution:
Stall:482	W0_Idle:1064367	W0_Scoreboard:12907541	W1:0	W2:0	W3:0	W4:0	W5:0	W6:0	W7:0	W8:0	W9:0	W10:0	W11:0	W12:0	W13:0	W14:0	W15:0	W16:5514	W17:0	W18:0	W19:0	W20:0	W21:0	W22:0	W23:0	W24:0	W25:0	W26:0	W27:0	W28:0	W29:0	W30:0	W31:0	W32:204418
traffic_breakdown_coretomem[CONST_ACC_R] = 40 {8:5,}
traffic_breakdown_coretomem[GLOBAL_ACC_R] = 11885104 {8:1485638,}
traffic_breakdown_coretomem[GLOBAL_ACC_W] = 6124800 {72:1200,136:44400,}
traffic_breakdown_coretomem[INST_ACC_R] = 200 {8:25,}
traffic_breakdown_memtocore[CONST_ACC_R] = 360 {72:5,}
traffic_breakdown_memtocore[GLOBAL_ACC_R] = 59429104 {40:1485600,72:1,136:37,}
traffic_breakdown_memtocore[GLOBAL_ACC_W] = 364800 {8:45600,}
traffic_breakdown_memtocore[INST_ACC_R] = 3400 {136:25,}
maxmrqlatency = 36 
maxdqlatency = 0 
maxmflatency = 962650 
averagemflatency = 683 
max_icnt2mem_latency = 962344 
max_icnt2sh_latency = 1683608 
mrq_lat_table:45424 	53 	92 	267 	118 	6 	0 	0 	0 	0 	0 	0 	0 	0 	0 	0 	0 	0 	0 	0 	0 	0 	0 	0 	0 	0 	0 	0 	0 	0 	0 	0 	
dq_lat_table:0 	0 	0 	0 	0 	0 	0 	0 	0 	0 	0 	0 	0 	0 	0 	0 	0 	0 	0 	0 	0 	0 	0 	0 	0 	0 	0 	0 	0 	0 	0 	0 	
mf_lat_table:0 	0 	0 	0 	0 	0 	0 	479250 	1044309 	6406 	0 	32 	0 	44 	14 	40 	83 	165 	341 	559 	0 	0 	0 	0 	0 	0 	0 	0 	0 	0 	0 	0 	
icnt2mem_lat_table:0 	0 	200277 	6961 	1319 	1462 	646103 	642771 	31097 	0 	0 	32 	0 	44 	14 	40 	83 	165 	341 	559 	0 	0 	0 	0 	
icnt2sh_lat_table:0 	0 	196006 	232670 	403082 	598401 	55484 	0 	0 	0 	0 	0 	0 	0 	0 	0 	0 	0 	2255 	17473 	25872 	0 	0 	0 	
mf_lat_pw_table:0 	0 	0 	0 	0 	0 	0 	1099 	1404 	0 	67 	11 	17 	70 	6 	7 	10 	0 	0 	0 	0 	0 	0 	0 	0 	0 	0 	0 	0 	0 	0 	0 	
maximum concurrent accesses to same row:
dram[0]:         5         5         2         2         2         2         2         2         2         2         2         2         2         2         2         2 
dram[1]:         5         5         2         2         2         2         2         2         2         2         2         2         2         2         2         2 
dram[2]:         5         5         2         2         3         3         2         2         2         2         2         2         2         2         2         2 
dram[3]:         4         4         2         2         2         2         2         2         2         2         2         2         2         2         2         2 
maximum service time to same row:
dram[0]:     58946     55857     74455     85301     86248     74458     52436     74461    104846     88734     88159     64161     78423    104852     88734     83194 
dram[1]:     64100     73564     86249     74454     55856     74457     85307     82828     81095     55918     83491    104848     83805     83091     64167     78423 
dram[2]:     78010     73626     55856     74453     94007     55859     74460     52439     83491     96605     83805     83494    104852     88734    137127     43165 
dram[3]:     55859     86248     74457     55855     74459     85306     82828     74462     43115     83491    104850     88734     83091     64165     78526    104856 
average row accesses per activate:
dram[0]:  1.015257  1.023513  1.005618  1.009859  1.007013  1.008475  1.008439  1.011299  1.009887  1.008451  1.002801  1.004219  1.005626  1.005618  1.005650  1.005674 
dram[1]:  1.019364  1.022130  1.007023  1.007042  1.012640  1.011284  1.007042  1.008427  1.004196  1.008451  1.008392  1.005626  1.004219  1.008439  1.005666  1.007102 
dram[2]:  1.016529  1.019337  1.007003  1.005626  1.011299  1.011220  1.007042  1.007032  1.007003  1.005610  1.007042  1.008415  1.005634  1.004219  1.002829  1.007072 
dram[3]:  1.016529  1.015214  1.009887  1.011268  1.005634  1.008427  1.008403  1.009887  1.005634  1.004196  1.009915  1.012676  1.009831  1.005642  1.005706  1.004255 
average row locality = 45960/45560 = 1.008780
number of total memory accesses made:
dram[0]:         0         0         0         0         0         0         0         0         0         0         0         0         0         0         0         0 
dram[1]:         0         0         0         0         0         0         0         0         0         0         0         0         0         0         0         0 
dram[2]:         0         0         0         0         0         0         0         0         0         0         0         0         0         0         0         0 
dram[3]:         0         0         0         0         0         0         0         0         0         0         0         0         0         0         0         0 
total accesses: 0
min_bank_accesses = 0!
min_chip_accesses = 0!
number of total read accesses:
dram[0]:       727       735       716       717       718       714       717       716       715       716       716       714       715       716       712       709 
dram[1]:       730       733       717       715       721       717       715       718       718       716       721       715       714       717       710       709 
dram[2]:       731       732       719       715       716       721       715       716       719       717       715       719       714       714       709       712 
dram[3]:       732       730       715       718       714       718       720       715       714       718       713       719       719       713       705       708 
total reads: 45914
bank skew: 735/705 = 1.04
chip skew: 11486/11471 = 1.00
number of total write accesses:
dram[0]:         5         5         0         0         0         0         0         0         0         0         0         0         0         0         0         0 
dram[1]:         7         6         0         0         0         0         0         0         0         0         0         0         0         0         0         0 
dram[2]:         7         6         0         0         0         0         0         0         0         0         0         0         0         0         0         0 
dram[3]:         6         4         0         0         0         0         0         0         0         0         0         0         0         0         0         0 
total reads: 46
min_bank_accesses = 0!
chip skew: 13/10 = 1.30
average mf latency per bank:
dram[0]:      26954     24080     24114     22920     21280     22320     18346     24108     26832     22548     20481     23722     21599     24836     22265     20601
dram[1]:      25641     26552     20556     23492     21004     22469     21024     20204     21496     24067     21560     23872     20837     22653     24767     22295
dram[2]:      24624     27344     20353     21795     22134     20839     24608     20783     21056     24115     22464     21443     23687     21814     23139     21603
dram[3]:      24400     26130     24330     18234     22517     22472     21785     24025     23249     19363     23150     24639     23543     22533     20816     24668
maximum mf latency per bank:
dram[0]:     919418    908672    941193    919530    941216    919529    908624    941323    962506    930334    962543    952136    930338    962605    930347    962649
dram[1]:     941343    919506    941351    919520    908601    941172    919565    941182    954802    943945    930381    962560    930381    962559    951962    930364
dram[2]:     932950    941109    908596    941111    919557    908679    941152    919496    922029    962640    952144    930335    962644    930344    962650    952037
dram[3]:     908568    941326    919483    908672    941127    919523    941134    919532    952023    930342    962566    930351    962579    952123    930331    962634
Memory Partition 0: 
Cache L2_bank_000:
MSHR contents

Cache L2_bank_001:
MSHR contents

In Dram Latency Queue (total = 0): 
DRAM[0]: 16 bks, busW=4 BL=8 CL=12, tRRD=2 tCCD=6, tRCD=12 tRAS=28 tRP=12 tRC=40
n_cmd=2713714 n_nop=2645028 n_act=11385 n_pre=11369 n_req=11483 n_rd=45892 n_write=40 bw_util=0.03385
n_activity=317630 dram_eff=0.2892
bk0: 2908a 2689364i bk1: 2940a 2689658i bk2: 2864a 2689909i bk3: 2868a 2690408i bk4: 2872a 2689780i bk5: 2856a 2690451i bk6: 2868a 2689932i bk7: 2864a 2690313i bk8: 2860a 2690051i bk9: 2864a 2690338i bk10: 2864a 2689882i bk11: 2856a 2690397i bk12: 2860a 2689997i bk13: 2864a 2690269i bk14: 2848a 2689911i bk15: 2836a 2690367i 
dram_util_bins: 0 0 0 0 0 0 0 0 0 0
dram_eff_bins: 0 0 0 0 0 0 0 0 0 0
mrqq: max=6 avg=0.00107491
Memory Partition 1: 
Cache L2_bank_002:
MSHR contents

Cache L2_bank_003:
MSHR contents

In Dram Latency Queue (total = 0): 
DRAM[1]: 16 bks, busW=4 BL=8 CL=12, tRRD=2 tCCD=6, tRCD=12 tRAS=28 tRP=12 tRC=40
n_cmd=2713714 n_nop=2644946 n_act=11394 n_pre=11378 n_req=11499 n_rd=45944 n_write=52 bw_util=0.0339
n_activity=322128 dram_eff=0.2856
bk0: 2920a 2689140i bk1: 2932a 2689797i bk2: 2868a 2689898i bk3: 2860a 2690361i bk4: 2884a 2689901i bk5: 2868a 2690096i bk6: 2860a 2689919i bk7: 2872a 2690128i bk8: 2872a 2689844i bk9: 2864a 2690287i bk10: 2884a 2689735i bk11: 2860a 2690185i bk12: 2856a 2689958i bk13: 2868a 2690259i bk14: 2840a 2690072i bk15: 2836a 2690352i 
dram_util_bins: 0 0 0 0 0 0 0 0 0 0
dram_eff_bins: 0 0 0 0 0 0 0 0 0 0
mrqq: max=6 avg=0.00104985
Memory Partition 2: 
Cache L2_bank_004:
MSHR contents

Cache L2_bank_005:
MSHR contents

In Dram Latency Queue (total = 0): 
DRAM[2]: 16 bks, busW=4 BL=8 CL=12, tRRD=2 tCCD=6, tRCD=12 tRAS=28 tRP=12 tRC=40
n_cmd=2713714 n_nop=2644940 n_act=11402 n_pre=11386 n_req=11497 n_rd=45936 n_write=50 bw_util=0.03389
n_activity=321559 dram_eff=0.286
bk0: 2924a 2689242i bk1: 2928a 2689661i bk2: 2876a 2689843i bk3: 2860a 2690364i bk4: 2864a 2690106i bk5: 2884a 2690227i bk6: 2860a 2690008i bk7: 2864a 2690313i bk8: 2876a 2689795i bk9: 2868a 2690350i bk10: 2860a 2689909i bk11: 2876a 2690241i bk12: 2856a 2690025i bk13: 2856a 2690321i bk14: 2836a 2689989i bk15: 2848a 2690370i 
dram_util_bins: 0 0 0 0 0 0 0 0 0 0
dram_eff_bins: 0 0 0 0 0 0 0 0 0 0
mrqq: max=6 avg=0.000992367
Memory Partition 3: 
Cache L2_bank_006:
MSHR contents

Cache L2_bank_007:
MSHR contents

In Dram Latency Queue (total = 0): 
DRAM[3]: 16 bks, busW=4 BL=8 CL=12, tRRD=2 tCCD=6, tRCD=12 tRAS=28 tRP=12 tRC=40
n_cmd=2713714 n_nop=2645048 n_act=11379 n_pre=11363 n_req=11481 n_rd=45884 n_write=40 bw_util=0.03385
n_activity=319525 dram_eff=0.2875
bk0: 2928a 2689222i bk1: 2920a 2689637i bk2: 2860a 2689869i bk3: 2872a 2690256i bk4: 2856a 2689989i bk5: 2872a 2690386i bk6: 2880a 2689714i bk7: 2860a 2690268i bk8: 2856a 2689922i bk9: 2872a 2690203i bk10: 2852a 2690038i bk11: 2876a 2690259i bk12: 2876a 2689843i bk13: 2852a 2690391i bk14: 2820a 2690188i bk15: 2832a 2690542i 
dram_util_bins: 0 0 0 0 0 0 0 0 0 0
dram_eff_bins: 0 0 0 0 0 0 0 0 0 0
mrqq: max=6 avg=0.000977627

========= L2 cache stats =========
L2_cache_bank[0]: Access = 192095, Miss = 5736, Miss_rate = 0.030, Pending_hits = 45, Reservation_fails = 0
L2_cache_bank[1]: Access = 192090, Miss = 5737, Miss_rate = 0.030, Pending_hits = 4, Reservation_fails = 0
L2_cache_bank[2]: Access = 192090, Miss = 5746, Miss_rate = 0.030, Pending_hits = 0, Reservation_fails = 0
L2_cache_bank[3]: Access = 192090, Miss = 5740, Miss_rate = 0.030, Pending_hits = 0, Reservation_fails = 0
L2_cache_bank[4]: Access = 192090, Miss = 5738, Miss_rate = 0.030, Pending_hits = 0, Reservation_fails = 0
L2_cache_bank[5]: Access = 191477, Miss = 5746, Miss_rate = 0.030, Pending_hits = 0, Reservation_fails = 0
L2_cache_bank[6]: Access = 189668, Miss = 5732, Miss_rate = 0.030, Pending_hits = 0, Reservation_fails = 0
L2_cache_bank[7]: Access = 189668, Miss = 5739, Miss_rate = 0.030, Pending_hits = 0, Reservation_fails = 0
L2_total_cache_accesses = 1531268
L2_total_cache_misses = 45914
L2_total_cache_miss_rate = 0.0300
L2_total_cache_pending_hits = 49
L2_total_cache_reservation_fails = 0
L2_total_cache_breakdown:
	L2_cache_stats_breakdown[GLOBAL_ACC_R][HIT] = 1439719
	L2_cache_stats_breakdown[GLOBAL_ACC_R][HIT_RESERVED] = 37
	L2_cache_stats_breakdown[GLOBAL_ACC_R][MISS] = 45882
	L2_cache_stats_breakdown[GLOBAL_ACC_R][RESERVATION_FAIL] = 0
	L2_cache_stats_breakdown[LOCAL_ACC_R][HIT] = 0
	L2_cache_stats_breakdown[LOCAL_ACC_R][HIT_RESERVED] = 0
	L2_cache_stats_breakdown[LOCAL_ACC_R][MISS] = 0
	L2_cache_stats_breakdown[LOCAL_ACC_R][RESERVATION_FAIL] = 0
	L2_cache_stats_breakdown[CONST_ACC_R][HIT] = 0
	L2_cache_stats_breakdown[CONST_ACC_R][HIT_RESERVED] = 4
	L2_cache_stats_breakdown[CONST_ACC_R][MISS] = 1
	L2_cache_stats_breakdown[CONST_ACC_R][RESERVATION_FAIL] = 0
	L2_cache_stats_breakdown[TEXTURE_ACC_R][HIT] = 0
	L2_cache_stats_breakdown[TEXTURE_ACC_R][HIT_RESERVED] = 0
	L2_cache_stats_breakdown[TEXTURE_ACC_R][MISS] = 0
	L2_cache_stats_breakdown[TEXTURE_ACC_R][RESERVATION_FAIL] = 0
	L2_cache_stats_breakdown[GLOBAL_ACC_W][HIT] = 45574
	L2_cache_stats_breakdown[GLOBAL_ACC_W][HIT_RESERVED] = 0
	L2_cache_stats_breakdown[GLOBAL_ACC_W][MISS] = 26
	L2_cache_stats_breakdown[GLOBAL_ACC_W][RESERVATION_FAIL] = 0
	L2_cache_stats_breakdown[LOCAL_ACC_W][HIT] = 0
	L2_cache_stats_breakdown[LOCAL_ACC_W][HIT_RESERVED] = 0
	L2_cache_stats_breakdown[LOCAL_ACC_W][MISS] = 0
	L2_cache_stats_breakdown[LOCAL_ACC_W][RESERVATION_FAIL] = 0
	L2_cache_stats_breakdown[L1_WRBK_ACC][HIT] = 0
	L2_cache_stats_breakdown[L1_WRBK_ACC][HIT_RESERVED] = 0
	L2_cache_stats_breakdown[L1_WRBK_ACC][MISS] = 0
	L2_cache_stats_breakdown[L1_WRBK_ACC][RESERVATION_FAIL] = 0
	L2_cache_stats_breakdown[L2_WRBK_ACC][HIT] = 0
	L2_cache_stats_breakdown[L2_WRBK_ACC][HIT_RESERVED] = 0
	L2_cache_stats_breakdown[L2_WRBK_ACC][MISS] = 0
	L2_cache_stats_breakdown[L2_WRBK_ACC][RESERVATION_FAIL] = 0
	L2_cache_stats_breakdown[INST_ACC_R][HIT] = 12
	L2_cache_stats_breakdown[INST_ACC_R][HIT_RESERVED] = 8
	L2_cache_stats_breakdown[INST_ACC_R][MISS] = 5
	L2_cache_stats_breakdown[INST_ACC_R][RESERVATION_FAIL] = 0
	L2_cache_stats_breakdown[L1_WR_ALLOC_R][HIT] = 0
	L2_cache_stats_breakdown[L1_WR_ALLOC_R][HIT_RESERVED] = 0
	L2_cache_stats_breakdown[L1_WR_ALLOC_R][MISS] = 0
	L2_cache_stats_breakdown[L1_WR_ALLOC_R][RESERVATION_FAIL] = 0
	L2_cache_stats_breakdown[L2_WR_ALLOC_R][HIT] = 0
	L2_cache_stats_breakdown[L2_WR_ALLOC_R][HIT_RESERVED] = 0
	L2_cache_stats_breakdown[L2_WR_ALLOC_R][MISS] = 0
	L2_cache_stats_breakdown[L2_WR_ALLOC_R][RESERVATION_FAIL] = 0
	L2_cache_stats_breakdown[GLOBAL_ACC_R][TOTAL_ACCESS] = 1485638
	L2_cache_stats_breakdown[CONST_ACC_R][TOTAL_ACCESS] = 5
	L2_cache_stats_breakdown[GLOBAL_ACC_W][TOTAL_ACCESS] = 45600
	L2_cache_stats_breakdown[INST_ACC_R][TOTAL_ACCESS] = 25
L2_cache_data_port_util = 0.139
L2_cache_fill_port_util = 0.016

icnt_total_pkts_mem_to_simt=3017128
icnt_total_pkts_simt_to_mem=1711268
LD_mem_lat_dist  0 0 0 0 0 0 0 0 0 0 0 0 0 0 0 0 0 0 0 0 0 0 0 0 0 0 0
ST_mem_lat_dist  0 0 0 0 0 0 0 0 0 0 0 0 0 0 0 0 0 0 0 0 0 0 0 0 0 0 0
----------------------------Interconnect-DETAILS--------------------------------
Class 0:
Packet latency average = 36.2442
	minimum = 6
	maximum = 406
Network latency average = 24.2637
	minimum = 6
	maximum = 405
Slowest packet = 1671452
Flit latency average = 26.4286
	minimum = 6
	maximum = 405
Slowest flit = 2580511
Fragmentation average = 0.0153951
	minimum = 0
	maximum = 342
Injected packet rate average = 0.0209553
	minimum = 0 (at node 0)
	maximum = 0.111674 (at node 1)
Accepted packet rate average = 0.0209553
	minimum = 0 (at node 0)
	maximum = 0.111674 (at node 1)
Injected flit rate average = 0.032354
	minimum = 0 (at node 0)
	maximum = 0.1294 (at node 28)
Accepted flit rate average= 0.032354
	minimum = 0 (at node 0)
	maximum = 0.220077 (at node 1)
Injected packet length average = 1.54395
Accepted packet length average = 1.54395
Total in-flight flits = 0 (0 measured)
====== Overall Traffic Statistics ======
====== Traffic class 0 ======
Packet latency average = 36.2442 (1 samples)
	minimum = 6 (1 samples)
	maximum = 406 (1 samples)
Network latency average = 24.2637 (1 samples)
	minimum = 6 (1 samples)
	maximum = 405 (1 samples)
Flit latency average = 26.4286 (1 samples)
	minimum = 6 (1 samples)
	maximum = 405 (1 samples)
Fragmentation average = 0.0153951 (1 samples)
	minimum = 0 (1 samples)
	maximum = 342 (1 samples)
Injected packet rate average = 0.0209553 (1 samples)
	minimum = 0 (1 samples)
	maximum = 0.111674 (1 samples)
Accepted packet rate average = 0.0209553 (1 samples)
	minimum = 0 (1 samples)
	maximum = 0.111674 (1 samples)
Injected flit rate average = 0.032354 (1 samples)
	minimum = 0 (1 samples)
	maximum = 0.1294 (1 samples)
Accepted flit rate average = 0.032354 (1 samples)
	minimum = 0 (1 samples)
	maximum = 0.220077 (1 samples)
Injected packet size average = 1.54395 (1 samples)
Accepted packet size average = 1.54395 (1 samples)
Hops average = 1 (1 samples)
----------------------------END-of-Interconnect-DETAILS-------------------------


gpgpu_simulation_time = 0 days, 1 hrs, 16 min, 14 sec (4574 sec)
gpgpu_simulation_rate = 1448 (inst/sec)
gpgpu_simulation_rate = 368 (cycle/sec)
GPGPU-Sim uArch: Shader 6 bind to kernel 2 '_Z12atax_kernel2PfS_S_'
GPGPU-Sim uArch: CTA/core = 8, limited by: threads
GPGPU-Sim uArch: Shader 7 bind to kernel 2 '_Z12atax_kernel2PfS_S_'
GPGPU-Sim uArch: Shader 8 bind to kernel 2 '_Z12atax_kernel2PfS_S_'
GPGPU-Sim uArch: Shader 9 bind to kernel 2 '_Z12atax_kernel2PfS_S_'
GPGPU-Sim uArch: Shader 10 bind to kernel 2 '_Z12atax_kernel2PfS_S_'
Destroy streams for kernel 2: size 0
kernel_name = _Z12atax_kernel2PfS_S_ 
kernel_launch_uid = 2 
gpu_sim_cycle = 445437
gpu_sim_insn = 6738800
gpu_ipc =      15.1285
gpu_tot_sim_cycle = 2351195
gpu_tot_sim_insn = 13366000
gpu_tot_ipc =       5.6848
gpu_tot_issued_cta = 10
max_total_param_size = 0
gpu_stall_dramfull = 545860
gpu_stall_icnt2sh    = 5868692
partiton_reqs_in_parallel = 3563496
partiton_reqs_in_parallel_total    = 11145812
partiton_level_parallism =       8.0000
partiton_level_parallism_total  =       6.2561
partiton_reqs_in_parallel_util = 3563496
partiton_reqs_in_parallel_util_total    = 11145812
gpu_sim_cycle_parition_util = 445437
gpu_tot_sim_cycle_parition_util    = 1461290
partiton_level_parallism_util =       8.0000
partiton_level_parallism_util_total  =       7.7144
partiton_replys_in_parallel = 159073
partiton_replys_in_parallel_total    = 1531268
L2_BW  =      33.8490 GB/Sec
L2_BW_total  =      68.1429 GB/Sec
gpu_total_sim_rate=2318

========= Core cache stats =========
L1I_cache:
	L1I_total_cache_accesses = 217384
	L1I_total_cache_misses = 313
	L1I_total_cache_miss_rate = 0.0014
	L1I_total_cache_pending_hits = 0
	L1I_total_cache_reservation_fails = 0
L1D_cache:
	L1D_cache_core[0]: Access = 0, Miss = 0, Miss_rate = -nan, Pending_hits = 0, Reservation_fails = 0
	L1D_cache_core[1]: Access = 0, Miss = 0, Miss_rate = -nan, Pending_hits = 0, Reservation_fails = 0
	L1D_cache_core[2]: Access = 0, Miss = 0, Miss_rate = -nan, Pending_hits = 0, Reservation_fails = 0
	L1D_cache_core[3]: Access = 0, Miss = 0, Miss_rate = -nan, Pending_hits = 0, Reservation_fails = 0
	L1D_cache_core[4]: Access = 0, Miss = 0, Miss_rate = -nan, Pending_hits = 0, Reservation_fails = 0
	L1D_cache_core[5]: Access = 0, Miss = 0, Miss_rate = -nan, Pending_hits = 0, Reservation_fails = 0
	L1D_cache_core[6]: Access = 0, Miss = 0, Miss_rate = -nan, Pending_hits = 0, Reservation_fails = 0
	L1D_cache_core[7]: Access = 0, Miss = 0, Miss_rate = -nan, Pending_hits = 0, Reservation_fails = 0
	L1D_cache_core[8]: Access = 0, Miss = 0, Miss_rate = -nan, Pending_hits = 0, Reservation_fails = 0
	L1D_cache_core[9]: Access = 0, Miss = 0, Miss_rate = -nan, Pending_hits = 0, Reservation_fails = 0
	L1D_cache_core[10]: Access = 0, Miss = 0, Miss_rate = -nan, Pending_hits = 0, Reservation_fails = 0
	L1D_cache_core[11]: Access = 0, Miss = 0, Miss_rate = -nan, Pending_hits = 0, Reservation_fails = 0
	L1D_cache_core[12]: Access = 0, Miss = 0, Miss_rate = -nan, Pending_hits = 0, Reservation_fails = 0
	L1D_cache_core[13]: Access = 0, Miss = 0, Miss_rate = -nan, Pending_hits = 0, Reservation_fails = 0
	L1D_cache_core[14]: Access = 0, Miss = 0, Miss_rate = -nan, Pending_hits = 0, Reservation_fails = 0
	L1D_cache_core[15]: Access = 0, Miss = 0, Miss_rate = -nan, Pending_hits = 0, Reservation_fails = 0
	L1D_cache_core[16]: Access = 0, Miss = 0, Miss_rate = -nan, Pending_hits = 0, Reservation_fails = 0
	L1D_cache_core[17]: Access = 0, Miss = 0, Miss_rate = -nan, Pending_hits = 0, Reservation_fails = 0
	L1D_cache_core[18]: Access = 0, Miss = 0, Miss_rate = -nan, Pending_hits = 0, Reservation_fails = 0
	L1D_cache_core[19]: Access = 0, Miss = 0, Miss_rate = -nan, Pending_hits = 0, Reservation_fails = 0
	L1D_cache_core[20]: Access = 0, Miss = 0, Miss_rate = -nan, Pending_hits = 0, Reservation_fails = 0
	L1D_cache_core[21]: Access = 0, Miss = 0, Miss_rate = -nan, Pending_hits = 0, Reservation_fails = 0
	L1D_cache_core[22]: Access = 0, Miss = 0, Miss_rate = -nan, Pending_hits = 0, Reservation_fails = 0
	L1D_cache_core[23]: Access = 0, Miss = 0, Miss_rate = -nan, Pending_hits = 0, Reservation_fails = 0
	L1D_cache_core[24]: Access = 0, Miss = 0, Miss_rate = -nan, Pending_hits = 0, Reservation_fails = 0
	L1D_cache_core[25]: Access = 0, Miss = 0, Miss_rate = -nan, Pending_hits = 0, Reservation_fails = 0
	L1D_cache_core[26]: Access = 0, Miss = 0, Miss_rate = -nan, Pending_hits = 0, Reservation_fails = 0
	L1D_cache_core[27]: Access = 0, Miss = 0, Miss_rate = -nan, Pending_hits = 0, Reservation_fails = 0
	L1D_total_cache_accesses = 0
	L1D_total_cache_misses = 0
	L1D_total_cache_pending_hits = 0
	L1D_total_cache_reservation_fails = 0
	L1D_cache_data_port_util = 0.000
	L1D_cache_fill_port_util = 0.000
L1C_cache:
	L1C_total_cache_accesses = 240
	L1C_total_cache_misses = 200
	L1C_total_cache_miss_rate = 0.8333
	L1C_total_cache_pending_hits = 0
	L1C_total_cache_reservation_fails = 0
L1T_cache:
	L1T_total_cache_accesses = 0
	L1T_total_cache_misses = 0
	L1T_total_cache_pending_hits = 0
	L1T_total_cache_reservation_fails = 0

Total_core_cache_stats:
	Total_core_cache_stats_breakdown[GLOBAL_ACC_R][HIT] = 0
	Total_core_cache_stats_breakdown[GLOBAL_ACC_R][HIT_RESERVED] = 0
	Total_core_cache_stats_breakdown[GLOBAL_ACC_R][MISS] = 0
	Total_core_cache_stats_breakdown[GLOBAL_ACC_R][RESERVATION_FAIL] = 0
	Total_core_cache_stats_breakdown[LOCAL_ACC_R][HIT] = 0
	Total_core_cache_stats_breakdown[LOCAL_ACC_R][HIT_RESERVED] = 0
	Total_core_cache_stats_breakdown[LOCAL_ACC_R][MISS] = 0
	Total_core_cache_stats_breakdown[LOCAL_ACC_R][RESERVATION_FAIL] = 0
	Total_core_cache_stats_breakdown[CONST_ACC_R][HIT] = 40
	Total_core_cache_stats_breakdown[CONST_ACC_R][HIT_RESERVED] = 0
	Total_core_cache_stats_breakdown[CONST_ACC_R][MISS] = 200
	Total_core_cache_stats_breakdown[CONST_ACC_R][RESERVATION_FAIL] = 0
	Total_core_cache_stats_breakdown[TEXTURE_ACC_R][HIT] = 0
	Total_core_cache_stats_breakdown[TEXTURE_ACC_R][HIT_RESERVED] = 0
	Total_core_cache_stats_breakdown[TEXTURE_ACC_R][MISS] = 0
	Total_core_cache_stats_breakdown[TEXTURE_ACC_R][RESERVATION_FAIL] = 0
	Total_core_cache_stats_breakdown[GLOBAL_ACC_W][HIT] = 0
	Total_core_cache_stats_breakdown[GLOBAL_ACC_W][HIT_RESERVED] = 0
	Total_core_cache_stats_breakdown[GLOBAL_ACC_W][MISS] = 0
	Total_core_cache_stats_breakdown[GLOBAL_ACC_W][RESERVATION_FAIL] = 0
	Total_core_cache_stats_breakdown[LOCAL_ACC_W][HIT] = 0
	Total_core_cache_stats_breakdown[LOCAL_ACC_W][HIT_RESERVED] = 0
	Total_core_cache_stats_breakdown[LOCAL_ACC_W][MISS] = 0
	Total_core_cache_stats_breakdown[LOCAL_ACC_W][RESERVATION_FAIL] = 0
	Total_core_cache_stats_breakdown[L1_WRBK_ACC][HIT] = 0
	Total_core_cache_stats_breakdown[L1_WRBK_ACC][HIT_RESERVED] = 0
	Total_core_cache_stats_breakdown[L1_WRBK_ACC][MISS] = 0
	Total_core_cache_stats_breakdown[L1_WRBK_ACC][RESERVATION_FAIL] = 0
	Total_core_cache_stats_breakdown[L2_WRBK_ACC][HIT] = 0
	Total_core_cache_stats_breakdown[L2_WRBK_ACC][HIT_RESERVED] = 0
	Total_core_cache_stats_breakdown[L2_WRBK_ACC][MISS] = 0
	Total_core_cache_stats_breakdown[L2_WRBK_ACC][RESERVATION_FAIL] = 0
	Total_core_cache_stats_breakdown[INST_ACC_R][HIT] = 217071
	Total_core_cache_stats_breakdown[INST_ACC_R][HIT_RESERVED] = 0
	Total_core_cache_stats_breakdown[INST_ACC_R][MISS] = 313
	Total_core_cache_stats_breakdown[INST_ACC_R][RESERVATION_FAIL] = 0
	Total_core_cache_stats_breakdown[L1_WR_ALLOC_R][HIT] = 0
	Total_core_cache_stats_breakdown[L1_WR_ALLOC_R][HIT_RESERVED] = 0
	Total_core_cache_stats_breakdown[L1_WR_ALLOC_R][MISS] = 0
	Total_core_cache_stats_breakdown[L1_WR_ALLOC_R][RESERVATION_FAIL] = 0
	Total_core_cache_stats_breakdown[L2_WR_ALLOC_R][HIT] = 0
	Total_core_cache_stats_breakdown[L2_WR_ALLOC_R][HIT_RESERVED] = 0
	Total_core_cache_stats_breakdown[L2_WR_ALLOC_R][MISS] = 0
	Total_core_cache_stats_breakdown[L2_WR_ALLOC_R][RESERVATION_FAIL] = 0
	Total_core_cache_stats_breakdown[CONST_ACC_R][TOTAL_ACCESS] = 240
	Total_core_cache_stats_breakdown[INST_ACC_R][TOTAL_ACCESS] = 217384
Shader 0 warp_id issue ditsribution:
warp_id:

distro:

gpgpu_n_tot_thrd_icount = 13548736
gpgpu_n_tot_w_icount = 423398
gpgpu_n_stall_shd_mem = 1488220
gpgpu_n_mem_read_local = 0
gpgpu_n_mem_write_local = 0
gpgpu_n_mem_read_global = 1599076
gpgpu_n_mem_write_global = 91200
gpgpu_n_mem_texture = 0
gpgpu_n_mem_const = 10
gpgpu_n_load_insn  = 5762400
gpgpu_n_store_insn = 2880000
gpgpu_n_shmem_insn = 0
gpgpu_n_tex_insn = 0
gpgpu_n_const_mem_insn = 0
gpgpu_n_param_mem_insn = 7680
gpgpu_n_shmem_bkconflict = 0
gpgpu_n_cache_bkconflict = 0
gpgpu_n_intrawarp_mshr_merge = 0
gpgpu_n_cmem_portconflict = 0
gpgpu_stall_shd_mem[c_mem][bk_conf] = 0
gpgpu_stall_shd_mem[c_mem][mshr_rc] = 0
gpgpu_stall_shd_mem[c_mem][icnt_rc] = 0
gpgpu_stall_shd_mem[c_mem][data_port_stall] = 0
gpgpu_stall_shd_mem[t_mem][mshr_rc] = 0
gpgpu_stall_shd_mem[t_mem][icnt_rc] = 0
gpgpu_stall_shd_mem[t_mem][data_port_stall] = 0
gpgpu_stall_shd_mem[s_mem][bk_conf] = 0
gpgpu_stall_shd_mem[gl_mem][bk_conf] = 0
gpgpu_stall_shd_mem[gl_mem][coal_stall] = 1423806
gpgpu_stall_shd_mem[gl_mem][data_port_stall] = 0
gpgpu_stall_shd_mem[g_mem_ld][mshr_rc] = 0
gpgpu_stall_shd_mem[g_mem_ld][icnt_rc] = 64414
gpgpu_stall_shd_mem[g_mem_ld][wb_icnt_rc] = 0
gpgpu_stall_shd_mem[g_mem_ld][wb_rsrv_fail] = 0
gpgpu_stall_shd_mem[g_mem_st][mshr_rc] = 0
gpgpu_stall_shd_mem[g_mem_st][icnt_rc] = 0
gpgpu_stall_shd_mem[g_mem_st][wb_icnt_rc] = 0
gpgpu_stall_shd_mem[g_mem_st][wb_rsrv_fail] = 0
gpgpu_stall_shd_mem[l_mem_ld][mshr_rc] = 0
gpgpu_stall_shd_mem[l_mem_ld][icnt_rc] = 0
gpgpu_stall_shd_mem[l_mem_ld][wb_icnt_rc] = 0
gpgpu_stall_shd_mem[l_mem_ld][wb_rsrv_fail] = 0
gpgpu_stall_shd_mem[l_mem_st][mshr_rc] = 0
gpgpu_stall_shd_mem[l_mem_st][icnt_rc] = 0
gpgpu_stall_shd_mem[l_mem_ld][wb_icnt_rc] = 0
gpgpu_stall_shd_mem[l_mem_ld][wb_rsrv_fail] = 0
gpu_reg_bank_conflict_stalls = 0
Warp Occupancy Distribution:
Stall:10045	W0_Idle:1076928	W0_Scoreboard:17129274	W1:0	W2:0	W3:0	W4:0	W5:0	W6:0	W7:0	W8:0	W9:0	W10:0	W11:0	W12:0	W13:0	W14:0	W15:0	W16:11121	W17:0	W18:0	W19:0	W20:0	W21:0	W22:0	W23:0	W24:0	W25:0	W26:0	W27:0	W28:0	W29:0	W30:0	W31:0	W32:412277
traffic_breakdown_coretomem[CONST_ACC_R] = 80 {8:10,}
traffic_breakdown_coretomem[GLOBAL_ACC_R] = 12792608 {8:1599076,}
traffic_breakdown_coretomem[GLOBAL_ACC_W] = 12249600 {72:2400,136:88800,}
traffic_breakdown_coretomem[INST_ACC_R] = 440 {8:55,}
traffic_breakdown_memtocore[CONST_ACC_R] = 720 {72:10,}
traffic_breakdown_memtocore[GLOBAL_ACC_R] = 67560608 {40:1531200,72:45602,136:22274,}
traffic_breakdown_memtocore[GLOBAL_ACC_W] = 729600 {8:91200,}
traffic_breakdown_memtocore[INST_ACC_R] = 7480 {136:55,}
maxmrqlatency = 40 
maxdqlatency = 0 
maxmflatency = 962650 
averagemflatency = 639 
max_icnt2mem_latency = 962344 
max_icnt2sh_latency = 2351194 
mrq_lat_table:89302 	277 	208 	347 	166 	22 	0 	0 	0 	0 	0 	0 	0 	0 	0 	0 	0 	0 	0 	0 	0 	0 	0 	0 	0 	0 	0 	0 	0 	0 	0 	0 	
dq_lat_table:0 	0 	0 	0 	0 	0 	0 	0 	0 	0 	0 	0 	0 	0 	0 	0 	0 	0 	0 	0 	0 	0 	0 	0 	0 	0 	0 	0 	0 	0 	0 	0 	
mf_lat_table:0 	0 	0 	0 	0 	0 	0 	577386 	1105178 	6406 	0 	64 	0 	50 	14 	40 	83 	165 	341 	559 	0 	0 	0 	0 	0 	0 	0 	0 	0 	0 	0 	0 	
icnt2mem_lat_table:0 	0 	284640 	17561 	1352 	1462 	710140 	642773 	31097 	0 	0 	64 	0 	50 	14 	40 	83 	165 	341 	559 	0 	0 	0 	0 	
icnt2sh_lat_table:0 	0 	300674 	241296 	403229 	598403 	55484 	0 	0 	0 	0 	0 	0 	0 	0 	0 	0 	0 	2255 	17473 	45357 	26115 	0 	0 	
mf_lat_pw_table:0 	0 	0 	0 	0 	0 	0 	1979 	1408 	2 	67 	11 	17 	70 	6 	7 	10 	0 	0 	0 	0 	0 	0 	0 	0 	0 	0 	0 	0 	0 	0 	0 	
maximum concurrent accesses to same row:
dram[0]:        16        16        16        16        16        16        16        16        16        16        16        16        16        16        16        16 
dram[1]:        16        16        16        16        16        16        16        16        16        16        16        16        16        16        16        16 
dram[2]:        16        16        16        16        16        16        16        16        16        16        16        16        16        16        16        16 
dram[3]:        16        16        16        16        16        16        16        16        16        16        16        16        16        16        16        16 
maximum service time to same row:
dram[0]:     58946     55857     74455     85301     86248     74458     52436     74461    104846     88734     88159     64161     78423    104852     88734     83194 
dram[1]:     64100     73564     86249     74454     55856     74457     85307     82828     81095     55918     83491    104848     83805     83091     64167     78423 
dram[2]:     78010     73626     55856     74453     94007     55859     74460     52439     83491     96605     83805     83494    104852     88734    137127     43165 
dram[3]:     55859     86248     74457     55855     74459     85306     82828     74462     43115     83491    104850     88734     83091     64165     78526    104856 
average row accesses per activate:
dram[0]:  1.847938  1.847631  1.863757  1.868700  1.857332  1.867021  1.868874  1.876330  1.872848  1.870542  1.858839  1.863576  1.864901  1.863757  1.855053  1.859813 
dram[1]:  1.855297  1.850000  1.866402  1.867374  1.865079  1.867198  1.868700  1.866402  1.862205  1.871863  1.862978  1.862252  1.863576  1.868874  1.856000  1.859626 
dram[2]:  1.847240  1.842711  1.862797  1.864901  1.868351  1.863937  1.868700  1.864901  1.863338  1.861842  1.867374  1.866579  1.866048  1.864901  1.852197  1.856192 
dram[3]:  1.837596  1.832908  1.871011  1.870026  1.862069  1.861111  1.864116  1.872340  1.868874  1.863158  1.877333  1.874005  1.869048  1.867198  1.861745  1.854473 
average row locality = 90322/48493 = 1.862578
number of total memory accesses made:
dram[0]:         0         0         0         0         0         0         0         0         0         0         0         0         0         0         0         0 
dram[1]:         0         0         0         0         0         0         0         0         0         0         0         0         0         0         0         0 
dram[2]:         0         0         0         0         0         0         0         0         0         0         0         0         0         0         0         0 
dram[3]:         0         0         0         0         0         0         0         0         0         0         0         0         0         0         0         0 
total accesses: 0
min_bank_accesses = 0!
min_chip_accesses = 0!
number of total read accesses:
dram[0]:      1428      1434      1409      1409      1406      1404      1411      1411      1414      1416      1409      1407      1408      1409      1395      1393 
dram[1]:      1429      1433      1411      1408      1410      1406      1409      1411      1419      1417      1414      1406      1407      1411      1392      1391 
dram[2]:      1432      1431      1412      1408      1405      1411      1409      1408      1418      1415      1408      1413      1407      1408      1391      1394 
dram[3]:      1429      1429      1407      1410      1404      1407      1413      1408      1411      1416      1408      1413      1413      1406      1387      1389 
total reads: 90257
bank skew: 1434/1387 = 1.03
chip skew: 22574/22550 = 1.00
number of total write accesses:
dram[0]:         6         9         0         0         0         0         0         0         0         0         0         0         0         0         0         0 
dram[1]:         7        10         0         0         0         0         0         0         0         0         0         0         0         0         0         0 
dram[2]:         7        10         0         0         0         0         0         0         0         0         0         0         0         0         0         0 
dram[3]:         8         8         0         0         0         0         0         0         0         0         0         0         0         0         0         0 
total reads: 65
min_bank_accesses = 0!
chip skew: 17/15 = 1.13
average mf latency per bank:
dram[0]:      14580     13154     12503     11913     11117     11602      9572     12483     14394     12228     10657     12289     11217     12871     11613     10735
dram[1]:      13968     14403     10695     12180     10990     11710     10919     10531     11701     12988     11243     12390     10824     11761     12881     11614
dram[2]:      13437     14754     10616     11320     11532     10899     12739     10820     11504     13047     11660     11161     12273     11314     12046     11285
dram[3]:      13225     14040     12612      9532     11700     11715     11348     12447     12472     10521     11972     12784     12228     11674     10829     12821
maximum mf latency per bank:
dram[0]:     919418    908672    941193    919530    941216    919529    908624    941323    962506    930334    962543    952136    930338    962605    930347    962649
dram[1]:     941343    919506    941351    919520    908601    941172    919565    941182    954802    943945    930381    962560    930381    962559    951962    930364
dram[2]:     932950    941109    908596    941111    919557    908679    941152    919496    922029    962640    952144    930335    962644    930344    962650    952037
dram[3]:     908568    941326    919483    908672    941127    919523    941134    919532    952023    930342    962566    930351    962579    952123    930331    962634
Memory Partition 0: 
Cache L2_bank_000:
MSHR contents

Cache L2_bank_001:
MSHR contents

In Dram Latency Queue (total = 0): 
DRAM[0]: 16 bks, busW=4 BL=8 CL=12, tRRD=2 tCCD=6, tRCD=12 tRAS=28 tRP=12 tRC=40
n_cmd=3540824 n_nop=3426288 n_act=12120 n_pre=12104 n_req=22578 n_rd=90252 n_write=60 bw_util=0.05101
n_activity=501064 dram_eff=0.3605
bk0: 5712a 3509849i bk1: 5736a 3509282i bk2: 5636a 3510754i bk3: 5636a 3510503i bk4: 5624a 3510718i bk5: 5616a 3510687i bk6: 5644a 3510824i bk7: 5644a 3510470i bk8: 5656a 3510697i bk9: 5664a 3510400i bk10: 5636a 3510840i bk11: 5628a 3510557i bk12: 5632a 3510765i bk13: 5636a 3510311i bk14: 5580a 3510776i bk15: 5572a 3510627i 
dram_util_bins: 0 0 0 0 0 0 0 0 0 0
dram_eff_bins: 0 0 0 0 0 0 0 0 0 0
mrqq: max=6 avg=0.00133105
Memory Partition 1: 
Cache L2_bank_002:
MSHR contents

Cache L2_bank_003:
MSHR contents

In Dram Latency Queue (total = 0): 
DRAM[1]: 16 bks, busW=4 BL=8 CL=12, tRRD=2 tCCD=6, tRCD=12 tRAS=28 tRP=12 tRC=40
n_cmd=3540824 n_nop=3426228 n_act=12124 n_pre=12108 n_req=22591 n_rd=90296 n_write=68 bw_util=0.05104
n_activity=505409 dram_eff=0.3576
bk0: 5716a 3509844i bk1: 5732a 3509362i bk2: 5644a 3510733i bk3: 5632a 3510368i bk4: 5640a 3510783i bk5: 5624a 3510204i bk6: 5636a 3510810i bk7: 5644a 3510282i bk8: 5676a 3510556i bk9: 5668a 3510322i bk10: 5656a 3510583i bk11: 5624a 3510286i bk12: 5628a 3510848i bk13: 5644a 3510418i bk14: 5568a 3511013i bk15: 5564a 3510559i 
dram_util_bins: 0 0 0 0 0 0 0 0 0 0
dram_eff_bins: 0 0 0 0 0 0 0 0 0 0
mrqq: max=6 avg=0.00123982
Memory Partition 2: 
Cache L2_bank_004:
MSHR contents

Cache L2_bank_005:
MSHR contents

In Dram Latency Queue (total = 0): 
DRAM[2]: 16 bks, busW=4 BL=8 CL=12, tRRD=2 tCCD=6, tRCD=12 tRAS=28 tRP=12 tRC=40
n_cmd=3540824 n_nop=3426224 n_act=12135 n_pre=12119 n_req=22587 n_rd=90280 n_write=66 bw_util=0.05103
n_activity=503996 dram_eff=0.3585
bk0: 5728a 3509827i bk1: 5724a 3509259i bk2: 5648a 3510727i bk3: 5632a 3510418i bk4: 5620a 3510977i bk5: 5644a 3510433i bk6: 5636a 3510724i bk7: 5632a 3510481i bk8: 5672a 3510525i bk9: 5660a 3510412i bk10: 5632a 3510759i bk11: 5652a 3510367i bk12: 5628a 3510843i bk13: 5632a 3510353i bk14: 5564a 3510959i bk15: 5576a 3510536i 
dram_util_bins: 0 0 0 0 0 0 0 0 0 0
dram_eff_bins: 0 0 0 0 0 0 0 0 0 0
mrqq: max=6 avg=0.0012322
Memory Partition 3: 
Cache L2_bank_006:
MSHR contents

Cache L2_bank_007:
MSHR contents

In Dram Latency Queue (total = 0): 
DRAM[3]: 16 bks, busW=4 BL=8 CL=12, tRRD=2 tCCD=6, tRCD=12 tRAS=28 tRP=12 tRC=40
n_cmd=3540824 n_nop=3426348 n_act=12114 n_pre=12098 n_req=22566 n_rd=90200 n_write=64 bw_util=0.05098
n_activity=502739 dram_eff=0.3591
bk0: 5716a 3509612i bk1: 5716a 3509276i bk2: 5628a 3510642i bk3: 5640a 3510350i bk4: 5616a 3510846i bk5: 5628a 3510622i bk6: 5652a 3510511i bk7: 5632a 3510361i bk8: 5644a 3510765i bk9: 5664a 3510243i bk10: 5632a 3510882i bk11: 5652a 3510405i bk12: 5652a 3510715i bk13: 5624a 3510559i bk14: 5548a 3511129i bk15: 5556a 3510767i 
dram_util_bins: 0 0 0 0 0 0 0 0 0 0
dram_eff_bins: 0 0 0 0 0 0 0 0 0 0
mrqq: max=6 avg=0.00121751

========= L2 cache stats =========
L2_cache_bank[0]: Access = 212665, Miss = 11280, Miss_rate = 0.053, Pending_hits = 2616, Reservation_fails = 0
L2_cache_bank[1]: Access = 212655, Miss = 11283, Miss_rate = 0.053, Pending_hits = 2532, Reservation_fails = 0
L2_cache_bank[2]: Access = 212650, Miss = 11291, Miss_rate = 0.053, Pending_hits = 2528, Reservation_fails = 0
L2_cache_bank[3]: Access = 212650, Miss = 11283, Miss_rate = 0.053, Pending_hits = 2537, Reservation_fails = 0
L2_cache_bank[4]: Access = 212655, Miss = 11282, Miss_rate = 0.053, Pending_hits = 2534, Reservation_fails = 0
L2_cache_bank[5]: Access = 211434, Miss = 11288, Miss_rate = 0.053, Pending_hits = 2530, Reservation_fails = 0
L2_cache_bank[6]: Access = 207816, Miss = 11272, Miss_rate = 0.054, Pending_hits = 2531, Reservation_fails = 0
L2_cache_bank[7]: Access = 207816, Miss = 11278, Miss_rate = 0.054, Pending_hits = 2519, Reservation_fails = 0
L2_total_cache_accesses = 1690341
L2_total_cache_misses = 90257
L2_total_cache_miss_rate = 0.0534
L2_total_cache_pending_hits = 20327
L2_total_cache_reservation_fails = 0
L2_total_cache_breakdown:
	L2_cache_stats_breakdown[GLOBAL_ACC_R][HIT] = 1488565
	L2_cache_stats_breakdown[GLOBAL_ACC_R][HIT_RESERVED] = 20293
	L2_cache_stats_breakdown[GLOBAL_ACC_R][MISS] = 90218
	L2_cache_stats_breakdown[GLOBAL_ACC_R][RESERVATION_FAIL] = 0
	L2_cache_stats_breakdown[LOCAL_ACC_R][HIT] = 0
	L2_cache_stats_breakdown[LOCAL_ACC_R][HIT_RESERVED] = 0
	L2_cache_stats_breakdown[LOCAL_ACC_R][MISS] = 0
	L2_cache_stats_breakdown[LOCAL_ACC_R][RESERVATION_FAIL] = 0
	L2_cache_stats_breakdown[CONST_ACC_R][HIT] = 0
	L2_cache_stats_breakdown[CONST_ACC_R][HIT_RESERVED] = 8
	L2_cache_stats_breakdown[CONST_ACC_R][MISS] = 2
	L2_cache_stats_breakdown[CONST_ACC_R][RESERVATION_FAIL] = 0
	L2_cache_stats_breakdown[TEXTURE_ACC_R][HIT] = 0
	L2_cache_stats_breakdown[TEXTURE_ACC_R][HIT_RESERVED] = 0
	L2_cache_stats_breakdown[TEXTURE_ACC_R][MISS] = 0
	L2_cache_stats_breakdown[TEXTURE_ACC_R][RESERVATION_FAIL] = 0
	L2_cache_stats_breakdown[GLOBAL_ACC_W][HIT] = 91174
	L2_cache_stats_breakdown[GLOBAL_ACC_W][HIT_RESERVED] = 0
	L2_cache_stats_breakdown[GLOBAL_ACC_W][MISS] = 26
	L2_cache_stats_breakdown[GLOBAL_ACC_W][RESERVATION_FAIL] = 0
	L2_cache_stats_breakdown[LOCAL_ACC_W][HIT] = 0
	L2_cache_stats_breakdown[LOCAL_ACC_W][HIT_RESERVED] = 0
	L2_cache_stats_breakdown[LOCAL_ACC_W][MISS] = 0
	L2_cache_stats_breakdown[LOCAL_ACC_W][RESERVATION_FAIL] = 0
	L2_cache_stats_breakdown[L1_WRBK_ACC][HIT] = 0
	L2_cache_stats_breakdown[L1_WRBK_ACC][HIT_RESERVED] = 0
	L2_cache_stats_breakdown[L1_WRBK_ACC][MISS] = 0
	L2_cache_stats_breakdown[L1_WRBK_ACC][RESERVATION_FAIL] = 0
	L2_cache_stats_breakdown[L2_WRBK_ACC][HIT] = 0
	L2_cache_stats_breakdown[L2_WRBK_ACC][HIT_RESERVED] = 0
	L2_cache_stats_breakdown[L2_WRBK_ACC][MISS] = 0
	L2_cache_stats_breakdown[L2_WRBK_ACC][RESERVATION_FAIL] = 0
	L2_cache_stats_breakdown[INST_ACC_R][HIT] = 18
	L2_cache_stats_breakdown[INST_ACC_R][HIT_RESERVED] = 26
	L2_cache_stats_breakdown[INST_ACC_R][MISS] = 11
	L2_cache_stats_breakdown[INST_ACC_R][RESERVATION_FAIL] = 0
	L2_cache_stats_breakdown[L1_WR_ALLOC_R][HIT] = 0
	L2_cache_stats_breakdown[L1_WR_ALLOC_R][HIT_RESERVED] = 0
	L2_cache_stats_breakdown[L1_WR_ALLOC_R][MISS] = 0
	L2_cache_stats_breakdown[L1_WR_ALLOC_R][RESERVATION_FAIL] = 0
	L2_cache_stats_breakdown[L2_WR_ALLOC_R][HIT] = 0
	L2_cache_stats_breakdown[L2_WR_ALLOC_R][HIT_RESERVED] = 0
	L2_cache_stats_breakdown[L2_WR_ALLOC_R][MISS] = 0
	L2_cache_stats_breakdown[L2_WR_ALLOC_R][RESERVATION_FAIL] = 0
	L2_cache_stats_breakdown[GLOBAL_ACC_R][TOTAL_ACCESS] = 1599076
	L2_cache_stats_breakdown[CONST_ACC_R][TOTAL_ACCESS] = 10
	L2_cache_stats_breakdown[GLOBAL_ACC_W][TOTAL_ACCESS] = 91200
	L2_cache_stats_breakdown[INST_ACC_R][TOTAL_ACCESS] = 55
L2_cache_data_port_util = 0.121
L2_cache_fill_port_util = 0.024

icnt_total_pkts_mem_to_simt=3402081
icnt_total_pkts_simt_to_mem=2050341
LD_mem_lat_dist  0 0 0 0 0 0 0 0 0 0 0 0 0 0 0 0 0 0 0 0 0 0 0 0 0 0 0
ST_mem_lat_dist  0 0 0 0 0 0 0 0 0 0 0 0 0 0 0 0 0 0 0 0 0 0 0 0 0 0 0
----------------------------Interconnect-DETAILS--------------------------------
Class 0:
Packet latency average = 8.43973
	minimum = 6
	maximum = 66
Network latency average = 8.01974
	minimum = 6
	maximum = 51
Slowest packet = 3062637
Flit latency average = 6.77596
	minimum = 6
	maximum = 49
Slowest flit = 4734612
Fragmentation average = 0
	minimum = 0
	maximum = 0
Injected packet rate average = 0.00714235
	minimum = 0 (at node 0)
	maximum = 0.0377327 (at node 6)
Accepted packet rate average = 0.00714235
	minimum = 0 (at node 0)
	maximum = 0.0377327 (at node 6)
Injected flit rate average = 0.0162543
	minimum = 0 (at node 0)
	maximum = 0.0808365 (at node 6)
Accepted flit rate average= 0.0162543
	minimum = 0 (at node 0)
	maximum = 0.0916776 (at node 6)
Injected packet length average = 2.27577
Accepted packet length average = 2.27577
Total in-flight flits = 0 (0 measured)
====== Overall Traffic Statistics ======
====== Traffic class 0 ======
Packet latency average = 22.3419 (2 samples)
	minimum = 6 (2 samples)
	maximum = 236 (2 samples)
Network latency average = 16.1417 (2 samples)
	minimum = 6 (2 samples)
	maximum = 228 (2 samples)
Flit latency average = 16.6023 (2 samples)
	minimum = 6 (2 samples)
	maximum = 227 (2 samples)
Fragmentation average = 0.00769754 (2 samples)
	minimum = 0 (2 samples)
	maximum = 171 (2 samples)
Injected packet rate average = 0.0140488 (2 samples)
	minimum = 0 (2 samples)
	maximum = 0.0747034 (2 samples)
Accepted packet rate average = 0.0140488 (2 samples)
	minimum = 0 (2 samples)
	maximum = 0.0747034 (2 samples)
Injected flit rate average = 0.0243041 (2 samples)
	minimum = 0 (2 samples)
	maximum = 0.105118 (2 samples)
Accepted flit rate average = 0.0243041 (2 samples)
	minimum = 0 (2 samples)
	maximum = 0.155878 (2 samples)
Injected packet size average = 1.72997 (2 samples)
Accepted packet size average = 1.72997 (2 samples)
Hops average = 1 (2 samples)
----------------------------END-of-Interconnect-DETAILS-------------------------


gpgpu_simulation_time = 0 days, 1 hrs, 36 min, 4 sec (5764 sec)
gpgpu_simulation_rate = 2318 (inst/sec)
gpgpu_simulation_rate = 407 (cycle/sec)
========================================UVM statistics==============================
========================================TLB statistics(access)==============================
Shader0: Tlb_access: 0 Tlb_hit: 0 Tlb_miss: 0 Tlb_hit_rate: -nan
Shader1: Tlb_access: 326408 Tlb_hit: 43935 Tlb_miss: 282473 Tlb_hit_rate: 0.134601
Shader2: Tlb_access: 326408 Tlb_hit: 43100 Tlb_miss: 283308 Tlb_hit_rate: 0.132043
Shader3: Tlb_access: 326408 Tlb_hit: 42794 Tlb_miss: 283614 Tlb_hit_rate: 0.131106
Shader4: Tlb_access: 326408 Tlb_hit: 42730 Tlb_miss: 283678 Tlb_hit_rate: 0.130910
Shader5: Tlb_access: 225606 Tlb_hit: 39820 Tlb_miss: 185786 Tlb_hit_rate: 0.176502
Shader6: Tlb_access: 33608 Tlb_hit: 19956 Tlb_miss: 13652 Tlb_hit_rate: 0.593787
Shader7: Tlb_access: 33608 Tlb_hit: 19949 Tlb_miss: 13659 Tlb_hit_rate: 0.593579
Shader8: Tlb_access: 33608 Tlb_hit: 19985 Tlb_miss: 13623 Tlb_hit_rate: 0.594650
Shader9: Tlb_access: 33608 Tlb_hit: 20203 Tlb_miss: 13405 Tlb_hit_rate: 0.601137
Shader10: Tlb_access: 24606 Tlb_hit: 14868 Tlb_miss: 9738 Tlb_hit_rate: 0.604243
Shader11: Tlb_access: 0 Tlb_hit: 0 Tlb_miss: 0 Tlb_hit_rate: -nan
Shader12: Tlb_access: 0 Tlb_hit: 0 Tlb_miss: 0 Tlb_hit_rate: -nan
Shader13: Tlb_access: 0 Tlb_hit: 0 Tlb_miss: 0 Tlb_hit_rate: -nan
Shader14: Tlb_access: 0 Tlb_hit: 0 Tlb_miss: 0 Tlb_hit_rate: -nan
Shader15: Tlb_access: 0 Tlb_hit: 0 Tlb_miss: 0 Tlb_hit_rate: -nan
Shader16: Tlb_access: 0 Tlb_hit: 0 Tlb_miss: 0 Tlb_hit_rate: -nan
Shader17: Tlb_access: 0 Tlb_hit: 0 Tlb_miss: 0 Tlb_hit_rate: -nan
Shader18: Tlb_access: 0 Tlb_hit: 0 Tlb_miss: 0 Tlb_hit_rate: -nan
Shader19: Tlb_access: 0 Tlb_hit: 0 Tlb_miss: 0 Tlb_hit_rate: -nan
Shader20: Tlb_access: 0 Tlb_hit: 0 Tlb_miss: 0 Tlb_hit_rate: -nan
Shader21: Tlb_access: 0 Tlb_hit: 0 Tlb_miss: 0 Tlb_hit_rate: -nan
Shader22: Tlb_access: 0 Tlb_hit: 0 Tlb_miss: 0 Tlb_hit_rate: -nan
Shader23: Tlb_access: 0 Tlb_hit: 0 Tlb_miss: 0 Tlb_hit_rate: -nan
Shader24: Tlb_access: 0 Tlb_hit: 0 Tlb_miss: 0 Tlb_hit_rate: -nan
Shader25: Tlb_access: 0 Tlb_hit: 0 Tlb_miss: 0 Tlb_hit_rate: -nan
Shader26: Tlb_access: 0 Tlb_hit: 0 Tlb_miss: 0 Tlb_hit_rate: -nan
Shader27: Tlb_access: 0 Tlb_hit: 0 Tlb_miss: 0 Tlb_hit_rate: -nan
Tlb_tot_access: 1690276 Tlb_tot_hit: 307340, Tlb_tot_miss: 1382936, Tlb_tot_hit_rate: 0.181828
========================================TLB statistics(validate)==============================
Shader0: Tlb_validate: 0 Tlb_invalidate: 0 Tlb_evict: 0 Tlb_page_evict: 0
Shader1: Tlb_validate: 281791 Tlb_invalidate: 281776 Tlb_evict: 281775 Tlb_page_evict: 1
Shader2: Tlb_validate: 282779 Tlb_invalidate: 282764 Tlb_evict: 282763 Tlb_page_evict: 1
Shader3: Tlb_validate: 282923 Tlb_invalidate: 282908 Tlb_evict: 282907 Tlb_page_evict: 1
Shader4: Tlb_validate: 283130 Tlb_invalidate: 283115 Tlb_evict: 283114 Tlb_page_evict: 1
Shader5: Tlb_validate: 185202 Tlb_invalidate: 185187 Tlb_evict: 185186 Tlb_page_evict: 1
Shader6: Tlb_validate: 1409 Tlb_invalidate: 1395 Tlb_evict: 1393 Tlb_page_evict: 2
Shader7: Tlb_validate: 1409 Tlb_invalidate: 1395 Tlb_evict: 1393 Tlb_page_evict: 2
Shader8: Tlb_validate: 1409 Tlb_invalidate: 1395 Tlb_evict: 1393 Tlb_page_evict: 2
Shader9: Tlb_validate: 1410 Tlb_invalidate: 1396 Tlb_evict: 1394 Tlb_page_evict: 2
Shader10: Tlb_validate: 1391 Tlb_invalidate: 1377 Tlb_evict: 1375 Tlb_page_evict: 2
Shader11: Tlb_validate: 0 Tlb_invalidate: 0 Tlb_evict: 0 Tlb_page_evict: 0
Shader12: Tlb_validate: 0 Tlb_invalidate: 0 Tlb_evict: 0 Tlb_page_evict: 0
Shader13: Tlb_validate: 0 Tlb_invalidate: 0 Tlb_evict: 0 Tlb_page_evict: 0
Shader14: Tlb_validate: 0 Tlb_invalidate: 0 Tlb_evict: 0 Tlb_page_evict: 0
[...]
Shader18: Total 0
Shader19: Total 0
Shader20: Total 0
Shader21: Total 0
Shader22: Total 0
Shader23: Total 0
Shader24: Total 0
Shader25: Total 0
Shader26: Total 0
Shader27: Total 0
Tlb_tot_thrash: 1314403
========================================Page fault statistics==============================
Shader0: Page_table_access:0 Page_hit: 0 Page_miss: 0 Page_hit_rate: -nan
Shader1: Page_table_access:282473 Page_hit: 282200 Page_miss: 273 Page_hit_rate: 0.999034
Shader2: Page_table_access:283308 Page_hit: 283036 Page_miss: 272 Page_hit_rate: 0.999040
Shader3: Page_table_access:283614 Page_hit: 283342 Page_miss: 272 Page_hit_rate: 0.999041
Shader4: Page_table_access:283678 Page_hit: 283406 Page_miss: 272 Page_hit_rate: 0.999041
Shader5: Page_table_access:185786 Page_hit: 185597 Page_miss: 189 Page_hit_rate: 0.998983
Shader6: Page_table_access:13652 Page_hit: 13644 Page_miss: 8 Page_hit_rate: 0.999414
Shader7: Page_table_access:13659 Page_hit: 13651 Page_miss: 8 Page_hit_rate: 0.999414
Shader8: Page_table_access:13623 Page_hit: 13615 Page_miss: 8 Page_hit_rate: 0.999413
Shader9: Page_table_access:13405 Page_hit: 13397 Page_miss: 8 Page_hit_rate: 0.999403
Shader10: Page_table_access:9738 Page_hit: 9732 Page_miss: 6 Page_hit_rate: 0.999384
Shader11: Page_table_access:0 Page_hit: 0 Page_miss: 0 Page_hit_rate: -nan
Shader12: Page_table_access:0 Page_hit: 0 Page_miss: 0 Page_hit_rate: -nan
Shader13: Page_table_access:0 Page_hit: 0 Page_miss: 0 Page_hit_rate: -nan
Shader14: Page_table_access:0 Page_hit: 0 Page_miss: 0 Page_hit_rate: -nan
Shader15: Page_table_access:0 Page_hit: 0 Page_miss: 0 Page_hit_rate: -nan
Shader16: Page_table_access:0 Page_hit: 0 Page_miss: 0 Page_hit_rate: -nan
Shader17: Page_table_access:0 Page_hit: 0 Page_miss: 0 Page_hit_rate: -nan
Shader18: Page_table_access:0 Page_hit: 0 Page_miss: 0 Page_hit_rate: -nan
Shader19: Page_table_access:0 Page_hit: 0 Page_miss: 0 Page_hit_rate: -nan
Shader20: Page_table_access:0 Page_hit: 0 Page_miss: 0 Page_hit_rate: -nan
Shader21: Page_table_access:0 Page_hit: 0 Page_miss: 0 Page_hit_rate: -nan
Shader22: Page_table_access:0 Page_hit: 0 Page_miss: 0 Page_hit_rate: -nan
Shader23: Page_table_access:0 Page_hit: 0 Page_miss: 0 Page_hit_rate: -nan
Shader24: Page_table_access:0 Page_hit: 0 Page_miss: 0 Page_hit_rate: -nan
Shader25: Page_table_access:0 Page_hit: 0 Page_miss: 0 Page_hit_rate: -nan
Shader26: Page_table_access:0 Page_hit: 0 Page_miss: 0 Page_hit_rate: -nan
Shader27: Page_table_access:0 Page_hit: 0 Page_miss: 0 Page_hit_rate: -nan
Page_table_tot_access: 1382936 Page_tot_hit: 1381620, Page_tot_miss 1316, Page_tot_hit_rate: 0.999048 Page_tot_fault: 91 Page_tot_pending: 1225
Total_memory_access_page_fault: 91, Average_latency: 712908.875000
========================================Page thrashing statistics==============================
Page_validate: 1456 Page_evict_dirty: 0 Page_evict_not_dirty: 0
Page_tot_thrash: 0
========================================Memory access statistics==============================
========================================Prefetch statistics==============================
Tot_page_hit: 0, Tot_page_miss: 0, Tot_page_fault: 0
Avg_page_latency: 0.000000, Avg_prefetch_size: -nan, Avg_prefetch_latency: 0.000000
========================================Rdma statistics==============================
dma_read: 0
dma_migration_read 0
dma_migration_write 0
========================================PCI-e statistics==============================
Pcie_read_utilization: 0.530488
[0-25]: 0.176596, [26-50]: 0.053500, [51-75]: 0.769904, [76-100]: 0.000000
Pcie_write_utilization: 0.000000
[0-25]: -nan, [26-50]: -nan, [51-75]: -nan, [76-100]: -nan
F:   222150----T:  1683609 	 	 	 Kl: 1 	 Sm: 0 	 T: kernel_launch(986.805542)
F:   222808----T:   225413 	 St: c0620000 Sz: 4096 	 Sm: 0 	 T: memcpy_h2d(1.758947)
F:   225413----T:   233653 	 St: c0621000 Sz: 61440 	 Sm: 0 	 T: memcpy_h2d(5.563808)
F:   233653----T:   236258 	 St: c0600000 Sz: 4096 	 Sm: 0 	 T: memcpy_h2d(1.758947)
F:   236258----T:   244498 	 St: c0601000 Sz: 61440 	 Sm: 0 	 T: memcpy_h2d(5.563808)
F:   244498----T:   251363 	 St: c0040000 Sz: 49152 	 Sm: 0 	 T: memcpy_h2d(4.635382)
F:   251363----T:   254793 	 St: c004c000 Sz: 16384 	 Sm: 0 	 T: memcpy_h2d(2.316003)
F:   254793----T:   261658 	 St: c04f0000 Sz: 49152 	 Sm: 0 	 T: memcpy_h2d(4.635382)
F:   261658----T:   265088 	 St: c04fc000 Sz: 16384 	 Sm: 0 	 T: memcpy_h2d(2.316003)
F:   265088----T:   270162 	 St: c0170000 Sz: 32768 	 Sm: 0 	 T: memcpy_h2d(3.426064)
F:   270162----T:   275236 	 St: c0178000 Sz: 32768 	 Sm: 0 	 T: memcpy_h2d(3.426064)
F:   275236----T:   277841 	 St: c0050000 Sz: 4096 	 Sm: 0 	 T: memcpy_h2d(1.758947)
F:   277841----T:   286081 	 St: c0051000 Sz: 61440 	 Sm: 0 	 T: memcpy_h2d(5.563808)
F:   286081----T:   289511 	 St: c02a0000 Sz: 16384 	 Sm: 0 	 T: memcpy_h2d(2.316003)
F:   289511----T:   296376 	 St: c02a4000 Sz: 49152 	 Sm: 0 	 T: memcpy_h2d(4.635382)
F:   296376----T:   298981 	 St: c0500000 Sz: 4096 	 Sm: 0 	 T: memcpy_h2d(1.758947)
F:   298981----T:   307221 	 St: c0501000 Sz: 61440 	 Sm: 0 	 T: memcpy_h2d(5.563808)
F:   307221----T:   315923 	 St: c03c0000 Sz: 65536 	 Sm: 0 	 T: memcpy_h2d(5.875760)
F:   315923----T:   318528 	 St: c03d0000 Sz: 4096 	 Sm: 0 	 T: memcpy_h2d(1.758947)
F:   318528----T:   326768 	 St: c03d1000 Sz: 61440 	 Sm: 0 	 T: memcpy_h2d(5.563808)
F:   326768----T:   329373 	 St: c0180000 Sz: 4096 	 Sm: 0 	 T: memcpy_h2d(1.758947)
F:   329373----T:   337613 	 St: c0181000 Sz: 61440 	 Sm: 0 	 T: memcpy_h2d(5.563808)
F:   337613----T:   340218 	 St: c0060000 Sz: 4096 	 Sm: 0 	 T: memcpy_h2d(1.758947)
F:   340218----T:   348458 	 St: c0061000 Sz: 61440 	 Sm: 0 	 T: memcpy_h2d(5.563808)
F:   348458----T:   351258 	 St: c02b0000 Sz: 8192 	 Sm: 0 	 T: memcpy_h2d(1.890614)
F:   351258----T:   359038 	 St: c02b2000 Sz: 57344 	 Sm: 0 	 T: memcpy_h2d(5.253207)
F:   359038----T:   361643 	 St: c0510000 Sz: 4096 	 Sm: 0 	 T: memcpy_h2d(1.758947)
F:   361643----T:   369883 	 St: c0511000 Sz: 61440 	 Sm: 0 	 T: memcpy_h2d(5.563808)
F:   369883----T:   372488 	 St: c03e0000 Sz: 4096 	 Sm: 0 	 T: memcpy_h2d(1.758947)
F:   372488----T:   380728 	 St: c03e1000 Sz: 61440 	 Sm: 0 	 T: memcpy_h2d(5.563808)
F:   380728----T:   383333 	 St: c0190000 Sz: 4096 	 Sm: 0 	 T: memcpy_h2d(1.758947)
F:   383333----T:   391573 	 St: c0191000 Sz: 61440 	 Sm: 0 	 T: memcpy_h2d(5.563808)
F:   391573----T:   394178 	 St: c02c0000 Sz: 4096 	 Sm: 0 	 T: memcpy_h2d(1.758947)
F:   394178----T:   402418 	 St: c02c1000 Sz: 61440 	 Sm: 0 	 T: memcpy_h2d(5.563808)
F:   402418----T:   405023 	 St: c0000000 Sz: 4096 	 Sm: 0 	 T: memcpy_h2d(1.758947)
F:   405023----T:   413263 	 St: c0001000 Sz: 61440 	 Sm: 0 	 T: memcpy_h2d(5.563808)
F:   413263----T:   417904 	 St: c0540000 Sz: 28672 	 Sm: 0 	 T: memcpy_h2d(3.133693)
F:   417904----T:   423419 	 St: c0547000 Sz: 36864 	 Sm: 0 	 T: memcpy_h2d(3.723835)
F:   423419----T:   430741 	 St: c0120000 Sz: 53248 	 Sm: 0 	 T: memcpy_h2d(4.943957)
F:   430741----T:   433827 	 St: c012d000 Sz: 12288 	 Sm: 0 	 T: memcpy_h2d(2.083727)
F:   433827----T:   436432 	 St: c03f0000 Sz: 4096 	 Sm: 0 	 T: memcpy_h2d(1.758947)
F:   436432----T:   444672 	 St: c03f1000 Sz: 61440 	 Sm: 0 	 T: memcpy_h2d(5.563808)
F:   444672----T:   450187 	 St: c0250000 Sz: 36864 	 Sm: 0 	 T: memcpy_h2d(3.723835)
F:   450187----T:   454828 	 St: c0259000 Sz: 28672 	 Sm: 0 	 T: memcpy_h2d(3.133693)
F:   454828----T:   457433 	 St: c0130000 Sz: 4096 	 Sm: 0 	 T: memcpy_h2d(1.758947)
F:   457433----T:   465673 	 St: c0131000 Sz: 61440 	 Sm: 0 	 T: memcpy_h2d(5.563808)
F:   465673----T:   469485 	 St: c0380000 Sz: 20480 	 Sm: 0 	 T: memcpy_h2d(2.573936)
F:   469485----T:   475897 	 St: c0385000 Sz: 45056 	 Sm: 0 	 T: memcpy_h2d(4.329507)
F:   475897----T:   478502 	 St: c0550000 Sz: 4096 	 Sm: 0 	 T: memcpy_h2d(1.758947)
F:   478502----T:   486742 	 St: c0551000 Sz: 61440 	 Sm: 0 	 T: memcpy_h2d(5.563808)
F:   486742----T:   489347 	 St: c0260000 Sz: 4096 	 Sm: 0 	 T: memcpy_h2d(1.758947)
F:   489347----T:   497587 	 St: c0261000 Sz: 61440 	 Sm: 0 	 T: memcpy_h2d(5.563808)
F:   497587----T:   500192 	 St: c0010000 Sz: 4096 	 Sm: 0 	 T: memcpy_h2d(1.758947)
F:   500192----T:   508432 	 St: c0011000 Sz: 61440 	 Sm: 0 	 T: memcpy_h2d(5.563808)
F:   508432----T:   511037 	 St: c0390000 Sz: 4096 	 Sm: 0 	 T: memcpy_h2d(1.758947)
F:   511037----T:   519277 	 St: c0391000 Sz: 61440 	 Sm: 0 	 T: memcpy_h2d(5.563808)
F:   519277----T:   522077 	 St: c0140000 Sz: 8192 	 Sm: 0 	 T: memcpy_h2d(1.890614)
F:   522077----T:   529857 	 St: c0142000 Sz: 57344 	 Sm: 0 	 T: memcpy_h2d(5.253207)
F:   529857----T:   532462 	 St: c0560000 Sz: 4096 	 Sm: 0 	 T: memcpy_h2d(1.758947)
F:   532462----T:   540702 	 St: c0561000 Sz: 61440 	 Sm: 0 	 T: memcpy_h2d(5.563808)
F:   540702----T:   543307 	 St: c0270000 Sz: 4096 	 Sm: 0 	 T: memcpy_h2d(1.758947)
F:   543307----T:   551547 	 St: c0271000 Sz: 61440 	 Sm: 0 	 T: memcpy_h2d(5.563808)
F:   551547----T:   554152 	 St: c0020000 Sz: 4096 	 Sm: 0 	 T: memcpy_h2d(1.758947)
F:   554152----T:   562392 	 St: c0021000 Sz: 61440 	 Sm: 0 	 T: memcpy_h2d(5.563808)
F:   562392----T:   567033 	 St: c0090000 Sz: 28672 	 Sm: 0 	 T: memcpy_h2d(3.133693)
F:   567033----T:   572548 	 St: c0097000 Sz: 36864 	 Sm: 0 	 T: memcpy_h2d(3.723835)
F:   572548----T:   575153 	 St: c03a0000 Sz: 4096 	 Sm: 0 	 T: memcpy_h2d(1.758947)
F:   575153----T:   583393 	 St: c03a1000 Sz: 61440 	 Sm: 0 	 T: memcpy_h2d(5.563808)
F:   583393----T:   585998 	 St: c0150000 Sz: 4096 	 Sm: 0 	 T: memcpy_h2d(1.758947)
F:   585998----T:   594238 	 St: c0151000 Sz: 61440 	 Sm: 0 	 T: memcpy_h2d(5.563808)
F:   594238----T:   598457 	 St: c04d0000 Sz: 24576 	 Sm: 0 	 T: memcpy_h2d(2.848751)
F:   598457----T:   604418 	 St: c04d6000 Sz: 40960 	 Sm: 0 	 T: memcpy_h2d(4.024983)
F:   604418----T:   607504 	 St: c01c0000 Sz: 12288 	 Sm: 0 	 T: memcpy_h2d(2.083727)
F:   607504----T:   614826 	 St: c01c3000 Sz: 53248 	 Sm: 0 	 T: memcpy_h2d(4.943957)
F:   614826----T:   623066 	 St: c02e0000 Sz: 61440 	 Sm: 0 	 T: memcpy_h2d(5.563808)
F:   623066----T:   625671 	 St: c02ef000 Sz: 4096 	 Sm: 0 	 T: memcpy_h2d(1.758947)
F:   625671----T:   628276 	 St: c02f0000 Sz: 4096 	 Sm: 0 	 T: memcpy_h2d(1.758947)
F:   628276----T:   636516 	 St: c02f1000 Sz: 61440 	 Sm: 0 	 T: memcpy_h2d(5.563808)
F:   636516----T:   639121 	 St: c00a0000 Sz: 4096 	 Sm: 0 	 T: memcpy_h2d(1.758947)
F:   639121----T:   647361 	 St: c00a1000 Sz: 61440 	 Sm: 0 	 T: memcpy_h2d(5.563808)
F:   647361----T:   653773 	 St: c0410000 Sz: 45056 	 Sm: 0 	 T: memcpy_h2d(4.329507)
F:   653773----T:   657585 	 St: c041b000 Sz: 20480 	 Sm: 0 	 T: memcpy_h2d(2.573936)
F:   657585----T:   660190 	 St: c04e0000 Sz: 4096 	 Sm: 0 	 T: memcpy_h2d(1.758947)
F:   660190----T:   668430 	 St: c04e1000 Sz: 61440 	 Sm: 0 	 T: memcpy_h2d(5.563808)
F:   668430----T:   671035 	 St: c01d0000 Sz: 4096 	 Sm: 0 	 T: memcpy_h2d(1.758947)
F:   671035----T:   679275 	 St: c01d1000 Sz: 61440 	 Sm: 0 	 T: memcpy_h2d(5.563808)
F:   679275----T:   682075 	 St: c0420000 Sz: 8192 	 Sm: 0 	 T: memcpy_h2d(1.890614)
F:   682075----T:   689855 	 St: c0422000 Sz: 57344 	 Sm: 0 	 T: memcpy_h2d(5.253207)
F:   689855----T:   692460 	 St: c0300000 Sz: 4096 	 Sm: 0 	 T: memcpy_h2d(1.758947)
F:   692460----T:   700700 	 St: c0301000 Sz: 61440 	 Sm: 0 	 T: memcpy_h2d(5.563808)
F:   700700----T:   703305 	 St: c00b0000 Sz: 4096 	 Sm: 0 	 T: memcpy_h2d(1.758947)
F:   703305----T:   711545 	 St: c00b1000 Sz: 61440 	 Sm: 0 	 T: memcpy_h2d(5.563808)
F:   711545----T:   714150 	 St: c0430000 Sz: 4096 	 Sm: 0 	 T: memcpy_h2d(1.758947)
F:   714150----T:   722390 	 St: c0431000 Sz: 61440 	 Sm: 0 	 T: memcpy_h2d(5.563808)
F:   722390----T:   724995 	 St: c01e0000 Sz: 4096 	 Sm: 0 	 T: memcpy_h2d(1.758947)
F:   724995----T:   733235 	 St: c01e1000 Sz: 61440 	 Sm: 0 	 T: memcpy_h2d(5.563808)
F:   733235----T:   736035 	 St: c00e0000 Sz: 8192 	 Sm: 0 	 T: memcpy_h2d(1.890614)
F:   736035----T:   743815 	 St: c00e2000 Sz: 57344 	 Sm: 0 	 T: memcpy_h2d(5.253207)
F:   743815----T:   746420 	 St: c0520000 Sz: 4096 	 Sm: 0 	 T: memcpy_h2d(1.758947)
F:   746420----T:   754660 	 St: c0521000 Sz: 61440 	 Sm: 0 	 T: memcpy_h2d(5.563808)
F:   754660----T:   762440 	 St: c0200000 Sz: 57344 	 Sm: 0 	 T: memcpy_h2d(5.253207)
F:   762440----T:   765240 	 St: c020e000 Sz: 8192 	 Sm: 0 	 T: memcpy_h2d(1.890614)
F:   765240----T:   768040 	 St: c0310000 Sz: 8192 	 Sm: 0 	 T: memcpy_h2d(1.890614)
F:   768040----T:   775820 	 St: c0312000 Sz: 57344 	 Sm: 0 	 T: memcpy_h2d(5.253207)
F:   775820----T:   778425 	 St: c0210000 Sz: 4096 	 Sm: 0 	 T: memcpy_h2d(1.758947)
F:   778425----T:   786665 	 St: c0211000 Sz: 61440 	 Sm: 0 	 T: memcpy_h2d(5.563808)
F:   786665----T:   792626 	 St: c0330000 Sz: 40960 	 Sm: 0 	 T: memcpy_h2d(4.024983)
F:   792626----T:   796845 	 St: c033a000 Sz: 24576 	 Sm: 0 	 T: memcpy_h2d(2.848751)
F:   796845----T:   801064 	 St: c0460000 Sz: 24576 	 Sm: 0 	 T: memcpy_h2d(2.848751)
F:   801064----T:   807025 	 St: c0466000 Sz: 40960 	 Sm: 0 	 T: memcpy_h2d(4.024983)
F:   807025----T:   809630 	 St: c0340000 Sz: 4096 	 Sm: 0 	 T: memcpy_h2d(1.758947)
F:   809630----T:   817870 	 St: c0341000 Sz: 61440 	 Sm: 0 	 T: memcpy_h2d(5.563808)
F:   817870----T:   820475 	 St: c00f0000 Sz: 4096 	 Sm: 0 	 T: memcpy_h2d(1.758947)
F:   820475----T:   828715 	 St: c00f1000 Sz: 61440 	 Sm: 0 	 T: memcpy_h2d(5.563808)
F:   828715----T:   831320 	 St: c0530000 Sz: 4096 	 Sm: 0 	 T: memcpy_h2d(1.758947)
F:   831320----T:   839560 	 St: c0531000 Sz: 61440 	 Sm: 0 	 T: memcpy_h2d(5.563808)
F:   839560----T:   842165 	 St: c0470000 Sz: 4096 	 Sm: 0 	 T: memcpy_h2d(1.758947)
F:   842165----T:   850405 	 St: c0471000 Sz: 61440 	 Sm: 0 	 T: memcpy_h2d(5.563808)
F:   850405----T:   853010 	 St: c0220000 Sz: 4096 	 Sm: 0 	 T: memcpy_h2d(1.758947)
F:   853010----T:   861250 	 St: c0221000 Sz: 61440 	 Sm: 0 	 T: memcpy_h2d(5.563808)
F:   861250----T:   863855 	 St: c0350000 Sz: 4096 	 Sm: 0 	 T: memcpy_h2d(1.758947)
F:   863855----T:   872095 	 St: c0351000 Sz: 61440 	 Sm: 0 	 T: memcpy_h2d(5.563808)
F:   872095----T:   874700 	 St: c0100000 Sz: 4096 	 Sm: 0 	 T: memcpy_h2d(1.758947)
F:   874700----T:   882940 	 St: c0101000 Sz: 61440 	 Sm: 0 	 T: memcpy_h2d(5.563808)
F:   882940----T:   885545 	 St: c0070000 Sz: 4096 	 Sm: 0 	 T: memcpy_h2d(1.758947)
F:   885545----T:   893785 	 St: c0071000 Sz: 61440 	 Sm: 0 	 T: memcpy_h2d(5.563808)
F:   893785----T:   896390 	 St: c0230000 Sz: 4096 	 Sm: 0 	 T: memcpy_h2d(1.758947)
F:   896390----T:   904630 	 St: c0231000 Sz: 61440 	 Sm: 0 	 T: memcpy_h2d(5.563808)
F:   904630----T:   907430 	 St: c0480000 Sz: 8192 	 Sm: 0 	 T: memcpy_h2d(1.890614)
F:   907430----T:   915210 	 St: c0482000 Sz: 57344 	 Sm: 0 	 T: memcpy_h2d(5.253207)
F:   915210----T:   917815 	 St: c0570000 Sz: 4096 	 Sm: 0 	 T: memcpy_h2d(1.758947)
F:   917815----T:   926055 	 St: c0571000 Sz: 61440 	 Sm: 0 	 T: memcpy_h2d(5.563808)
F:   926055----T:   928660 	 St: c01a0000 Sz: 4096 	 Sm: 0 	 T: memcpy_h2d(1.758947)
F:   928660----T:   936900 	 St: c01a1000 Sz: 61440 	 Sm: 0 	 T: memcpy_h2d(5.563808)
F:   936900----T:   939505 	 St: c02d0000 Sz: 4096 	 Sm: 0 	 T: memcpy_h2d(1.758947)
F:   939505----T:   947745 	 St: c02d1000 Sz: 61440 	 Sm: 0 	 T: memcpy_h2d(5.563808)
F:   947745----T:   950350 	 St: c0080000 Sz: 4096 	 Sm: 0 	 T: memcpy_h2d(1.758947)
F:   950350----T:   958590 	 St: c0081000 Sz: 61440 	 Sm: 0 	 T: memcpy_h2d(5.563808)
F:   958590----T:   961195 	 St: c04b0000 Sz: 4096 	 Sm: 0 	 T: memcpy_h2d(1.758947)
F:   961195----T:   969435 	 St: c04b1000 Sz: 61440 	 Sm: 0 	 T: memcpy_h2d(5.563808)
F:   969435----T:   972040 	 St: c0400000 Sz: 4096 	 Sm: 0 	 T: memcpy_h2d(1.758947)
F:   972040----T:   980280 	 St: c0401000 Sz: 61440 	 Sm: 0 	 T: memcpy_h2d(5.563808)
F:   980280----T:   982885 	 St: c01b0000 Sz: 4096 	 Sm: 0 	 T: memcpy_h2d(1.758947)
F:   982885----T:   991125 	 St: c01b1000 Sz: 61440 	 Sm: 0 	 T: memcpy_h2d(5.563808)
F:   991125----T:   993730 	 St: c04c0000 Sz: 4096 	 Sm: 0 	 T: memcpy_h2d(1.758947)
F:   993730----T:  1001970 	 St: c04c1000 Sz: 61440 	 Sm: 0 	 T: memcpy_h2d(5.563808)
F:  1001970----T:  1004575 	 St: c0360000 Sz: 4096 	 Sm: 0 	 T: memcpy_h2d(1.758947)
F:  1004575----T:  1012815 	 St: c0361000 Sz: 61440 	 Sm: 0 	 T: memcpy_h2d(5.563808)
F:  1012815----T:  1015615 	 St: c0110000 Sz: 8192 	 Sm: 0 	 T: memcpy_h2d(1.890614)
F:  1015615----T:  1023395 	 St: c0112000 Sz: 57344 	 Sm: 0 	 T: memcpy_h2d(5.253207)
F:  1023395----T:  1026000 	 St: c0490000 Sz: 4096 	 Sm: 0 	 T: memcpy_h2d(1.758947)
F:  1026000----T:  1034240 	 St: c0491000 Sz: 61440 	 Sm: 0 	 T: memcpy_h2d(5.563808)
F:  1034240----T:  1036845 	 St: c0240000 Sz: 4096 	 Sm: 0 	 T: memcpy_h2d(1.758947)
F:  1036845----T:  1045085 	 St: c0241000 Sz: 61440 	 Sm: 0 	 T: memcpy_h2d(5.563808)
F:  1045085----T:  1047690 	 St: c0370000 Sz: 4096 	 Sm: 0 	 T: memcpy_h2d(1.758947)
F:  1047690----T:  1055930 	 St: c0371000 Sz: 61440 	 Sm: 0 	 T: memcpy_h2d(5.563808)
F:  1055930----T:  1058535 	 St: c04a0000 Sz: 4096 	 Sm: 0 	 T: memcpy_h2d(1.758947)
F:  1058535----T:  1066775 	 St: c04a1000 Sz: 61440 	 Sm: 0 	 T: memcpy_h2d(5.563808)
F:  1066775----T:  1069380 	 St: c0030000 Sz: 4096 	 Sm: 0 	 T: memcpy_h2d(1.758947)
F:  1069380----T:  1077620 	 St: c0031000 Sz: 61440 	 Sm: 0 	 T: memcpy_h2d(5.563808)
F:  1077620----T:  1080420 	 St: c0280000 Sz: 8192 	 Sm: 0 	 T: memcpy_h2d(1.890614)
F:  1080420----T:  1088200 	 St: c0282000 Sz: 57344 	 Sm: 0 	 T: memcpy_h2d(5.253207)
F:  1088200----T:  1090805 	 St: c03b0000 Sz: 4096 	 Sm: 0 	 T: memcpy_h2d(1.758947)
F:  1090805----T:  1099045 	 St: c03b1000 Sz: 61440 	 Sm: 0 	 T: memcpy_h2d(5.563808)
F:  1099045----T:  1101650 	 St: c0160000 Sz: 4096 	 Sm: 0 	 T: memcpy_h2d(1.758947)
F:  1101650----T:  1109890 	 St: c0161000 Sz: 61440 	 Sm: 0 	 T: memcpy_h2d(5.563808)
F:  1109890----T:  1112495 	 St: c0290000 Sz: 4096 	 Sm: 0 	 T: memcpy_h2d(1.758947)
F:  1112495----T:  1120735 	 St: c0291000 Sz: 61440 	 Sm: 0 	 T: memcpy_h2d(5.563808)
F:  1120735----T:  1123340 	 St: c00c0000 Sz: 4096 	 Sm: 0 	 T: memcpy_h2d(1.758947)
F:  1123340----T:  1131580 	 St: c00c1000 Sz: 61440 	 Sm: 0 	 T: memcpy_h2d(5.563808)
F:  1131580----T:  1134185 	 St: c0440000 Sz: 4096 	 Sm: 0 	 T: memcpy_h2d(1.758947)
F:  1134185----T:  1142425 	 St: c0441000 Sz: 61440 	 Sm: 0 	 T: memcpy_h2d(5.563808)
F:  1142425----T:  1145030 	 St: c01f0000 Sz: 4096 	 Sm: 0 	 T: memcpy_h2d(1.758947)
F:  1145030----T:  1153270 	 St: c01f1000 Sz: 61440 	 Sm: 0 	 T: memcpy_h2d(5.563808)
F:  1153270----T:  1155875 	 St: c0320000 Sz: 4096 	 Sm: 0 	 T: memcpy_h2d(1.758947)
F:  1155875----T:  1164115 	 St: c0321000 Sz: 61440 	 Sm: 0 	 T: memcpy_h2d(5.563808)
F:  1164115----T:  1166720 	 St: c00d0000 Sz: 4096 	 Sm: 0 	 T: memcpy_h2d(1.758947)
F:  1166720----T:  1174960 	 St: c00d1000 Sz: 61440 	 Sm: 0 	 T: memcpy_h2d(5.563808)
F:  1174960----T:  1177760 	 St: c0450000 Sz: 8192 	 Sm: 0 	 T: memcpy_h2d(1.890614)
F:  1177760----T:  1185540 	 St: c0452000 Sz: 57344 	 Sm: 0 	 T: memcpy_h2d(5.253207)
F:  1905758----T:  2351195 	 	 	 Kl: 2 	 Sm: 0 	 T: kernel_launch(300.767731)
F:  1906454----T:  1909059 	 St: c0610000 Sz: 4096 	 Sm: 0 	 T: memcpy_h2d(1.758947)
F:  1909059----T:  1917299 	 St: c0611000 Sz: 61440 	 Sm: 0 	 T: memcpy_h2d(5.563808)
F:  2351195----T:  2353800 	 St: 0 Sz: 4096 	 Sm: 0 	 T: device_sync(1.758947)
F:  2351195----T:  2354281 	 St: 0 Sz: 12288 	 Sm: 0 	 T: device_sync(2.083727)
Tot_prefetch_time: 0(cycle), 0.000000(us)
Tot_kernel_exec_time: 1906896(cycle), 1287.573242(us)
Tot_kernel_exec_time_and_fault_time: 7971591(cycle), 5382.573242(us)
Tot_memcpy_h2d_time: 973577(cycle), 657.378113(us)
Tot_memcpy_d2h_time: 0(cycle), 0.000000(us)
Tot_memcpy_time: 973577(cycle), 657.378113(us)
Tot_devicesync_time: 5691(cycle), 3.842674(us)
Tot_writeback_time: 0(cycle), 0.000000(us)
Tot_dma_time: 0(cycle), 0.000000(us)
Tot_memcpy_d2h_sync_wb_time: 5691(cycle), 3.842674(us)
GPGPU-Sim: *** exit detected ***
